AeroDyn airfoil file Created with QBlade v0.91b 32-Bit on 03.06.2016 at 14:44:13 Compatible with AeroDyn v13.0.
Polar "T1_Re0.300_M0.00_N9.0 360 M" on Foil "T1_Re0.300_M0.00_N9.0" :: generated by QBlade
1              Number of airfoil tables in this file
0              Table ID parameter
20.00          Stall angle (deg)
0              No longer used, enter zero
0              No longer used, enter zero
0              No longer used, enter zero
-1.22          Angle of attack for zero Cn for linear Cn curve (deg)
6.04136        Cn slope for zero lift for linear Cn curve (1/rad)
-0.7548        Cn at stall value for positive angle of attack for linear Cn curve
-0.8473        Cn at stall value for negative angle of attack for linear Cn curve
-1.00          Angle of attack for minimum CD (deg)
0.0171         Minimum CD value
   -180.00   -0.0349    0.0060
   -179.00    0.0468    0.0065
   -178.00    0.1230    0.0080
   -177.00    0.1875    0.0105
   -176.00    0.2356    0.0140
   -175.00    0.2670    0.0184
   -174.00    0.2861    0.0239
   -173.00    0.2988    0.0303
   -172.00    0.3098    0.0377
   -171.00    0.3214    0.0461
   -170.00    0.3347    0.0553
   -169.00    0.3498    0.0656
   -168.00    0.3665    0.0767
   -167.00    0.3843    0.0888
   -166.00    0.4030    0.1017
   -165.00    0.4221    0.1155
   -164.00    0.4415    0.1302
   -163.00    0.4609    0.1457
   -162.00    0.4801    0.1621
   -161.00    0.4990    0.1792
   -160.00    0.5175    0.1971
   -159.00    0.5354    0.2158
   -158.00    0.5528    0.2352
   -157.00    0.5695    0.2553
   -156.00    0.5854    0.2761
   -155.00    0.6006    0.2976
   -154.00    0.6149    0.3197
   -153.00    0.6284    0.3424
   -152.00    0.6410    0.3657
   -151.00    0.6527    0.3895
   -150.00    0.6635    0.4138
   -149.00    0.6734    0.4387
   -148.00    0.6822    0.4640
   -147.00    0.6902    0.4897
   -146.00    0.6971    0.5158
   -145.00    0.7031    0.5423
   -144.00    0.7081    0.5691
   -143.00    0.7121    0.5962
   -142.00    0.7151    0.6236
   -141.00    0.7171    0.6513
   -140.00    0.7181    0.6791
   -139.00    0.7182    0.7071
   -138.00    0.7173    0.7352
   -137.00    0.7154    0.7634
   -136.00    0.7125    0.7917
   -135.00    0.7088    0.8200
   -134.00    0.7040    0.8483
   -133.00    0.6984    0.8766
   -132.00    0.6919    0.9048
   -131.00    0.6845    0.9329
   -130.00    0.6762    0.9608
   -129.00    0.6670    0.9886
   -128.00    0.6570    1.0161
   -127.00    0.6462    1.0434
   -126.00    0.6346    1.0705
   -125.00    0.6222    1.0972
   -124.00    0.6090    1.1236
   -123.00    0.5952    1.1496
   -122.00    0.5806    1.1752
   -121.00    0.5653    1.2004
   -120.00    0.5494    1.2251
   -119.00    0.5328    1.2493
   -118.00    0.5156    1.2730
   -117.00    0.4978    1.2961
   -116.00    0.4795    1.3187
   -115.00    0.4606    1.3406
   -114.00    0.4412    1.3619
   -113.00    0.4213    1.3825
   -112.00    0.4001    1.4025
   -111.00    0.3794    1.4217
   -110.00    0.3583    1.4402
   -109.00    0.3368    1.4580
   -108.00    0.3149    1.4750
   -107.00    0.2927    1.4912
   -106.00    0.2703    1.5065
   -105.00    0.2475    1.5210
   -104.00    0.2246    1.5347
   -103.00    0.2014    1.5475
   -102.00    0.1780    1.5594
   -101.00    0.1545    1.5705
   -100.00    0.1309    1.5806
    -99.00    0.1072    1.5897
    -98.00    0.0834    1.5980
    -97.00    0.0595    1.6053
    -96.00    0.0357    1.6116
    -95.00    0.0118    1.6170
    -94.00   -0.0120    1.6214
    -93.00   -0.0358    1.6248
    -92.00   -0.0595    1.6273
    -91.00   -0.0830    1.6288
    -90.00   -0.1065    1.6293
    -89.00   -0.1298    1.6288
    -88.00   -0.1529    1.6273
    -87.00   -0.1757    1.6248
    -86.00   -0.1984    1.6214
    -85.00   -0.2208    1.6170
    -84.00   -0.2429    1.6116
    -83.00   -0.2648    1.6053
    -82.00   -0.2863    1.5980
    -81.00   -0.3074    1.5897
    -80.00   -0.3282    1.5805
    -79.00   -0.3487    1.5704
    -78.00   -0.3687    1.5594
    -77.00   -0.3883    1.5475
    -76.00   -0.4074    1.5347
    -75.00   -0.4261    1.5210
    -74.00   -0.4444    1.5065
    -73.00   -0.4621    1.4911
    -72.00   -0.4793    1.4749
    -71.00   -0.4960    1.4579
    -70.00   -0.5121    1.4402
    -69.00   -0.5277    1.4217
    -68.00   -0.5427    1.4024
    -67.00   -0.5571    1.3824
    -66.00   -0.5710    1.3618
    -65.00   -0.5842    1.3405
    -64.00   -0.5967    1.3185
    -63.00   -0.6087    1.2960
    -62.00   -0.6199    1.2728
    -61.00   -0.6306    1.2492
    -60.00   -0.6405    1.2249
    -59.00   -0.6498    1.2002
    -58.00   -0.6583    1.1750
    -57.00   -0.6662    1.1494
    -56.00   -0.6733    1.1234
    -55.00   -0.6798    1.0970
    -54.00   -0.6855    1.0703
    -53.00   -0.6905    1.0432
    -52.00   -0.6947    1.0159
    -51.00   -0.6982    0.9883
    -50.00   -0.7010    0.9605
    -49.00   -0.7030    0.9326
    -48.00   -0.7043    0.9045
    -47.00   -0.7048    0.8762
    -46.00   -0.7046    0.8480
    -45.00   -0.7036    0.8196
    -44.00   -0.7019    0.7913
    -43.00   -0.6994    0.7630
    -42.00   -0.6962    0.7347
    -41.00   -0.6922    0.7066
    -40.00   -0.6875    0.6785
    -39.00   -0.6821    0.6507
    -38.00   -0.6759    0.6230
    -37.00   -0.6691    0.5955
    -36.00   -0.6615    0.5684
    -35.00   -0.6533    0.5415
    -34.00   -0.6444    0.5149
    -33.00   -0.6349    0.4887
    -32.00   -0.6248    0.4628
    -31.00   -0.6140    0.4374
    -30.00   -0.6028    0.4124
    -29.00   -0.5910    0.3879
    -28.00   -0.5789    0.3639
    -27.00   -0.5664    0.3404
    -26.00   -0.5537    0.3174
    -25.00   -0.5408    0.2950
    -24.00   -0.5282    0.2731
    -23.00   -0.5158    0.2518
    -22.00   -0.5043    0.2310
    -21.00   -0.4941    0.2108
    -20.00   -0.4861    0.1911
    -19.00   -0.4813    0.1718
    -18.00   -0.4818    0.1528
    -17.00   -0.4902    0.1341
    -16.00   -0.5107    0.1153
    -15.00   -0.5487    0.0962
    -14.00   -0.6102    0.0767
    -13.00   -0.6961    0.0572
    -12.00   -0.7914    0.0394
    -11.00   -0.8581    0.0259
    -10.00   -0.7617    0.0268
     -9.50   -0.7309    0.0253
     -9.00   -0.6984    0.0239
     -8.50   -0.6646    0.0227
     -8.00   -0.6299    0.0215
     -7.50   -0.5951    0.0206
     -7.00   -0.5645    0.0198
     -6.50   -0.5276    0.0192
     -6.00   -0.4844    0.0188
     -5.50   -0.4386    0.0184
     -5.00   -0.3908    0.0181
     -4.50   -0.3414    0.0179
     -4.00   -0.2911    0.0177
     -3.50   -0.2399    0.0175
     -3.00   -0.1880    0.0173
     -2.50   -0.1356    0.0172
     -2.00   -0.0829    0.0171
     -1.50   -0.0301    0.0171
     -1.00    0.0230    0.0171
     -0.50    0.0760    0.0171
      0.00    0.1289    0.0171
      0.50    0.1816    0.0172
      1.00    0.2339    0.0173
      1.50    0.2859    0.0174
      2.00    0.3371    0.0176
      2.50    0.3875    0.0178
      3.00    0.4369    0.0180
      3.50    0.4849    0.0183
      4.00    0.5310    0.0186
      4.50    0.5728    0.0189
      5.00    0.6103    0.0194
      5.50    0.6496    0.0201
      6.00    0.6891    0.0209
      6.50    0.7275    0.0218
      7.00    0.7647    0.0229
      7.50    0.8008    0.0241
      8.00    0.8355    0.0255
      8.50    0.8686    0.0270
      9.00    0.9003    0.0286
      9.50    0.9306    0.0305
     10.00    0.9593    0.0325
     10.50    0.9868    0.0346
     11.00    1.0126    0.0370
     11.50    1.0371    0.0395
     12.00    1.0619    0.0421
     12.50    1.0844    0.0451
     13.00    1.1076    0.0480
     13.50    1.1280    0.0514
     14.00    1.1491    0.0547
     14.50    1.1672    0.0584
     15.00    1.1857    0.0621
     15.50    1.1999    0.0664
     16.00    1.1940    0.0732
     16.50    1.1957    0.0794
     17.00    1.1941    0.0859
     17.50    1.1940    0.0926
     18.00    1.1929    0.0993
     18.50    1.1999    0.1053
     19.00    1.2080    0.1110
     19.50    1.2111    0.1176
     20.00    1.2153    0.1237
     21.00    1.1846    0.1478
     22.00    1.1552    0.1703
     23.00    1.1281    0.1938
     24.00    1.1038    0.2181
     25.00    1.0827    0.2432
     26.00    1.0647    0.2689
     27.00    1.0498    0.2950
     28.00    1.0376    0.3217
     29.00    1.0280    0.3488
     30.00    1.0206    0.3762
     31.00    1.0151    0.4040
     32.00    1.0112    0.4321
     33.00    1.0086    0.4605
     34.00    1.0071    0.4891
     35.00    1.0065    0.5180
     36.00    1.0065    0.5471
     37.00    1.0070    0.5764
     38.00    1.0078    0.6058
     39.00    1.0087    0.6354
     40.00    1.0096    0.6651
     41.00    1.0104    0.6949
     42.00    1.0110    0.7248
     43.00    1.0113    0.7547
     44.00    1.0112    0.7845
     45.00    1.0107    0.8144
     46.00    1.0096    0.8442
     47.00    1.0079    0.8739
     48.00    1.0056    0.9035
     49.00    1.0026    0.9330
     50.00    0.9988    0.9623
     51.00    0.9943    0.9913
     52.00    0.9891    1.0201
     53.00    0.9829    1.0487
     54.00    0.9760    1.0769
     55.00    0.9681    1.1048
     56.00    0.9594    1.1323
     57.00    0.9498    1.1594
     58.00    0.9393    1.1861
     59.00    0.9279    1.2124
     60.00    0.9155    1.2381
     61.00    0.9022    1.2633
     62.00    0.8880    1.2879
     63.00    0.8729    1.3120
     64.00    0.8568    1.3355
     65.00    0.8399    1.3583
     66.00    0.8220    1.3805
     67.00    0.8032    1.4020
     68.00    0.7835    1.4227
     69.00    0.7629    1.4428
     70.00    0.7415    1.4620
     71.00    0.7192    1.4805
     72.00    0.6962    1.4982
     73.00    0.6722    1.5150
     74.00    0.6476    1.5310
     75.00    0.6221    1.5461
     76.00    0.5959    1.5604
     77.00    0.5690    1.5737
     78.00    0.5414    1.5861
     79.00    0.5132    1.5976
     80.00    0.4843    1.6082
     81.00    0.4548    1.6178
     82.00    0.4248    1.6264
     83.00    0.3942    1.6340
     84.00    0.3631    1.6407
     85.00    0.3316    1.6463
     86.00    0.2997    1.6510
     87.00    0.2673    1.6546
     88.00    0.2347    1.6573
     89.00    0.2017    1.6589
     90.00    0.1685    1.6595
     91.00    0.1350    1.6591
     92.00    0.1013    1.6577
     93.00    0.0676    1.6552
     94.00    0.0337    1.6517
     95.00   -0.0003    1.6473
     96.00   -0.0342    1.6418
     97.00   -0.0681    1.6354
     98.00   -0.1019    1.6279
     99.00   -0.1356    1.6195
    100.00   -0.1692    1.6101
    101.00   -0.2025    1.5998
    102.00   -0.2355    1.5885
    103.00   -0.2683    1.5763
    104.00   -0.3007    1.5631
    105.00   -0.3326    1.5491
    106.00   -0.3642    1.5342
    107.00   -0.3953    1.5185
    108.00   -0.4258    1.5019
    109.00   -0.4558    1.4844
    110.00   -0.4852    1.4662
    111.00   -0.5212    1.4472
    112.00   -0.5491    1.4275
    113.00   -0.5762    1.4070
    114.00   -0.6026    1.3858
    115.00   -0.6282    1.3640
    116.00   -0.6529    1.3415
    117.00   -0.6768    1.3184
    118.00   -0.6998    1.2947
    119.00   -0.7218    1.2704
    120.00   -0.7428    1.2456
    121.00   -0.7628    1.2202
    122.00   -0.7818    1.1945
    123.00   -0.7998    1.1682
    124.00   -0.8166    1.1416
    125.00   -0.8324    1.1146
    126.00   -0.8469    1.0872
    127.00   -0.8604    1.0595
    128.00   -0.8726    1.0316
    129.00   -0.8837    1.0034
    130.00   -0.8936    0.9750
    131.00   -0.9022    0.9465
    132.00   -0.9096    0.9178
    133.00   -0.9158    0.8890
    134.00   -0.9207    0.8601
    135.00   -0.9244    0.8312
    136.00   -0.9268    0.8023
    137.00   -0.9279    0.7735
    138.00   -0.9278    0.7447
    139.00   -0.9264    0.7160
    140.00   -0.9238    0.6875
    141.00   -0.9200    0.6592
    142.00   -0.9149    0.6310
    143.00   -0.9086    0.6032
    144.00   -0.9011    0.5756
    145.00   -0.8924    0.5483
    146.00   -0.8826    0.5214
    147.00   -0.8716    0.4948
    148.00   -0.8595    0.4687
    149.00   -0.8463    0.4430
    150.00   -0.8320    0.4178
    151.00   -0.8168    0.3931
    152.00   -0.8005    0.3690
    153.00   -0.7833    0.3454
    154.00   -0.7653    0.3224
    155.00   -0.7464    0.3000
    156.00   -0.7267    0.2783
    157.00   -0.7063    0.2572
    158.00   -0.6853    0.2369
    159.00   -0.6638    0.2173
    160.00   -0.6419    0.1984
    161.00   -0.6197    0.1803
    162.00   -0.5973    0.1630
    163.00   -0.5751    0.1465
    164.00   -0.5532    0.1309
    165.00   -0.5319    0.1161
    166.00   -0.5117    0.1022
    167.00   -0.4930    0.0891
    168.00   -0.4763    0.0770
    169.00   -0.4624    0.0658
    170.00   -0.4517    0.0555
    171.00   -0.4443    0.0462
    172.00   -0.4390    0.0378
    173.00   -0.4325    0.0304
    174.00   -0.4187    0.0239
    175.00   -0.3902    0.0185
    176.00   -0.3424    0.0140
    177.00   -0.2769    0.0105
    178.00   -0.2000    0.0080
    179.00   -0.1181    0.0065
    180.00   -0.0349    0.0060
    180.00   -0.0349    0.0060
