AeroDyn airfoil file Created with QBlade v0.91b 32-Bit on 03.06.2016 at 14:44:13 Compatible with AeroDyn v13.0.
Polar "T1_Re1.600_M0.00_N9.0 360 M" on Foil "T1_Re1.600_M0.00_N9.0" :: generated by QBlade
1              Number of airfoil tables in this file
0              Table ID parameter
19.50          Stall angle (deg)
0              No longer used, enter zero
0              No longer used, enter zero
0              No longer used, enter zero
-1.34          Angle of attack for zero Cn for linear Cn curve (deg)
6.58955        Cn slope for zero lift for linear Cn curve (1/rad)
0.9917         Cn at stall value for positive angle of attack for linear Cn curve
-0.8809        Cn at stall value for negative angle of attack for linear Cn curve
-1.00          Angle of attack for minimum CD (deg)
0.0118         Minimum CD value
   -180.00   -0.0384    0.0060
   -179.00    0.0531    0.0065
   -178.00    0.1446    0.0080
   -177.00    0.2361    0.0105
   -176.00    0.3273    0.0140
   -175.00    0.4141    0.0184
   -174.00    0.4849    0.0239
   -173.00    0.5232    0.0303
   -172.00    0.5229    0.0377
   -171.00    0.4970    0.0461
   -170.00    0.4660    0.0553
   -169.00    0.4423    0.0656
   -168.00    0.4295    0.0767
   -167.00    0.4261    0.0888
   -166.00    0.4299    0.1017
   -165.00    0.4386    0.1155
   -164.00    0.4506    0.1302
   -163.00    0.4647    0.1457
   -162.00    0.4800    0.1621
   -161.00    0.4960    0.1792
   -160.00    0.5122    0.1971
   -159.00    0.5284    0.2158
   -158.00    0.5443    0.2352
   -157.00    0.5597    0.2553
   -156.00    0.5746    0.2761
   -155.00    0.5889    0.2976
   -154.00    0.6024    0.3197
   -153.00    0.6151    0.3424
   -152.00    0.6271    0.3657
   -151.00    0.6381    0.3895
   -150.00    0.6483    0.4138
   -149.00    0.6576    0.4387
   -148.00    0.6659    0.4640
   -147.00    0.6733    0.4897
   -146.00    0.6797    0.5158
   -145.00    0.6852    0.5423
   -144.00    0.6897    0.5691
   -143.00    0.6933    0.5962
   -142.00    0.6959    0.6236
   -141.00    0.6975    0.6513
   -140.00    0.6982    0.6791
   -139.00    0.6979    0.7071
   -138.00    0.6966    0.7352
   -137.00    0.6945    0.7634
   -136.00    0.6914    0.7917
   -135.00    0.6874    0.8200
   -134.00    0.6825    0.8483
   -133.00    0.6767    0.8766
   -132.00    0.6701    0.9048
   -131.00    0.6626    0.9329
   -130.00    0.6543    0.9608
   -129.00    0.6451    0.9886
   -128.00    0.6351    1.0161
   -127.00    0.6244    1.0434
   -126.00    0.6129    1.0705
   -125.00    0.6007    1.0972
   -124.00    0.5878    1.1236
   -123.00    0.5741    1.1496
   -122.00    0.5598    1.1752
   -121.00    0.5449    1.2004
   -120.00    0.5293    1.2251
   -119.00    0.5131    1.2493
   -118.00    0.4964    1.2730
   -117.00    0.4791    1.2961
   -116.00    0.4613    1.3187
   -115.00    0.4430    1.3406
   -114.00    0.4242    1.3619
   -113.00    0.4049    1.3825
   -112.00    0.3853    1.4025
   -111.00    0.3652    1.4217
   -110.00    0.3448    1.4403
   -109.00    0.3241    1.4580
   -108.00    0.3030    1.4750
   -107.00    0.2812    1.4912
   -106.00    0.2595    1.5065
   -105.00    0.2377    1.5211
   -104.00    0.2156    1.5347
   -103.00    0.1933    1.5475
   -102.00    0.1709    1.5594
   -101.00    0.1483    1.5705
   -100.00    0.1257    1.5806
    -99.00    0.1029    1.5897
    -98.00    0.0801    1.5980
    -97.00    0.0572    1.6053
    -96.00    0.0344    1.6116
    -95.00    0.0115    1.6170
    -94.00   -0.0113    1.6214
    -93.00   -0.0341    1.6248
    -92.00   -0.0567    1.6273
    -91.00   -0.0793    1.6288
    -90.00   -0.1017    1.6293
    -89.00   -0.1240    1.6288
    -88.00   -0.1462    1.6273
    -87.00   -0.1681    1.6248
    -86.00   -0.1898    1.6214
    -85.00   -0.2113    1.6170
    -84.00   -0.2325    1.6116
    -83.00   -0.2534    1.6053
    -82.00   -0.2740    1.5980
    -81.00   -0.2944    1.5897
    -80.00   -0.3143    1.5805
    -79.00   -0.3340    1.5704
    -78.00   -0.3532    1.5594
    -77.00   -0.3721    1.5475
    -76.00   -0.3905    1.5347
    -75.00   -0.4085    1.5210
    -74.00   -0.4261    1.5065
    -73.00   -0.4432    1.4911
    -72.00   -0.4599    1.4749
    -71.00   -0.4760    1.4579
    -70.00   -0.4916    1.4402
    -69.00   -0.5068    1.4217
    -68.00   -0.5213    1.4024
    -67.00   -0.5354    1.3825
    -66.00   -0.5488    1.3618
    -65.00   -0.5617    1.3405
    -64.00   -0.5740    1.3186
    -63.00   -0.5857    1.2960
    -62.00   -0.5968    1.2729
    -61.00   -0.6072    1.2492
    -60.00   -0.6171    1.2250
    -59.00   -0.6262    1.2002
    -58.00   -0.6348    1.1751
    -57.00   -0.6426    1.1495
    -56.00   -0.6498    1.1234
    -55.00   -0.6563    1.0970
    -54.00   -0.6621    1.0703
    -53.00   -0.6672    1.0432
    -52.00   -0.6716    1.0159
    -51.00   -0.6754    0.9884
    -50.00   -0.6783    0.9606
    -49.00   -0.6806    0.9326
    -48.00   -0.6822    0.9045
    -47.00   -0.6830    0.8763
    -46.00   -0.6831    0.8480
    -45.00   -0.6825    0.8197
    -44.00   -0.6812    0.7913
    -43.00   -0.6791    0.7630
    -42.00   -0.6763    0.7348
    -41.00   -0.6728    0.7066
    -40.00   -0.6686    0.6786
    -39.00   -0.6637    0.6507
    -38.00   -0.6580    0.6231
    -37.00   -0.6517    0.5956
    -36.00   -0.6447    0.5685
    -35.00   -0.6370    0.5416
    -34.00   -0.6287    0.5150
    -33.00   -0.6197    0.4888
    -32.00   -0.6101    0.4630
    -31.00   -0.6000    0.4376
    -30.00   -0.5894    0.4126
    -29.00   -0.5782    0.3881
    -28.00   -0.5667    0.3641
    -27.00   -0.5549    0.3406
    -26.00   -0.5429    0.3176
    -25.00   -0.5309    0.2952
    -24.00   -0.5192    0.2733
    -23.00   -0.5080    0.2519
    -22.00   -0.4979    0.2312
    -21.00   -0.4895    0.2109
    -20.00   -0.4841    0.1911
    -19.00   -0.4831    0.1716
    -18.00   -0.4893    0.1524
    -17.00   -0.5068    0.1332
    -16.00   -0.5417    0.1137
    -15.00   -0.6025    0.0935
    -14.00   -0.6970    0.0725
    -13.00   -0.8217    0.0516
    -12.00   -0.9422    0.0335
    -11.00   -0.9993    0.0217
    -10.00   -0.9235    0.0149
     -9.50   -0.8907    0.0143
     -9.00   -0.8448    0.0139
     -8.50   -0.7958    0.0136
     -8.00   -0.7450    0.0133
     -7.50   -0.6926    0.0131
     -7.00   -0.6392    0.0129
     -6.50   -0.5848    0.0127
     -6.00   -0.5298    0.0125
     -5.50   -0.4742    0.0123
     -5.00   -0.4181    0.0122
     -4.50   -0.3617    0.0121
     -4.00   -0.3049    0.0120
     -3.50   -0.2479    0.0119
     -3.00   -0.1907    0.0119
     -2.50   -0.1333    0.0118
     -2.00   -0.0757    0.0118
     -1.50   -0.0182    0.0118
     -1.00    0.0394    0.0118
     -0.50    0.0970    0.0118
      0.00    0.1546    0.0118
      0.50    0.2120    0.0118
      1.00    0.2693    0.0119
      1.50    0.3264    0.0120
      2.00    0.3833    0.0121
      2.50    0.4399    0.0122
      3.00    0.4961    0.0123
      3.50    0.5519    0.0124
      4.00    0.6072    0.0126
      4.50    0.6619    0.0128
      5.00    0.7159    0.0130
      5.50    0.7689    0.0132
      6.00    0.8208    0.0134
      6.50    0.8711    0.0137
      7.00    0.9195    0.0140
      7.50    0.9603    0.0143
      8.00    0.9994    0.0148
      8.50    1.0399    0.0155
      9.00    1.0796    0.0162
      9.50    1.1182    0.0171
     10.00    1.1556    0.0181
     10.50    1.1917    0.0193
     11.00    1.2260    0.0206
     11.50    1.2587    0.0220
     12.00    1.2818    0.0242
     12.50    1.2979    0.0269
     13.00    1.3069    0.0302
     13.50    1.3189    0.0336
     14.00    1.3216    0.0380
     14.50    1.3227    0.0427
     15.00    1.3355    0.0466
     15.50    1.3411    0.0514
     16.00    1.3454    0.0566
     16.50    1.3630    0.0603
     17.00    1.3719    0.0652
     17.50    1.3851    0.0697
     18.00    1.3881    0.0756
     18.50    1.3975    0.0807
     19.00    1.3957    0.0874
     19.50    1.4013    0.0931
     20.00    1.3954    0.1008
     21.00    1.3344    0.1419
     22.00    1.2908    0.1649
     23.00    1.2502    0.1889
     24.00    1.2134    0.2138
     25.00    1.1809    0.2394
     26.00    1.1528    0.2656
     27.00    1.1290    0.2923
     28.00    1.1091    0.3194
     29.00    1.0928    0.3469
     30.00    1.0796    0.3747
     31.00    1.0692    0.4027
     32.00    1.0611    0.4311
     33.00    1.0549    0.4597
     34.00    1.0504    0.4886
     35.00    1.0472    0.5176
     36.00    1.0450    0.5469
     37.00    1.0436    0.5763
     38.00    1.0428    0.6058
     39.00    1.0424    0.6355
     40.00    1.0422    0.6653
     41.00    1.0421    0.6951
     42.00    1.0419    0.7250
     43.00    1.0415    0.7550
     44.00    1.0408    0.7849
     45.00    1.0398    0.8148
     46.00    1.0382    0.8446
     47.00    1.0362    0.8744
     48.00    1.0336    0.9040
     49.00    1.0303    0.9334
     50.00    1.0263    0.9627
     51.00    1.0215    0.9918
     52.00    1.0160    1.0206
     53.00    1.0097    1.0491
     54.00    1.0025    1.0774
     55.00    0.9944    1.1052
     56.00    0.9855    1.1328
     57.00    0.9756    1.1599
     58.00    0.9649    1.1866
     59.00    0.9532    1.2128
     60.00    0.9405    1.2385
     61.00    0.9269    1.2637
     62.00    0.9124    1.2883
     63.00    0.8969    1.3124
     64.00    0.8804    1.3359
     65.00    0.8631    1.3587
     66.00    0.8447    1.3808
     67.00    0.8255    1.4023
     68.00    0.8053    1.4231
     69.00    0.7843    1.4431
     70.00    0.7623    1.4623
     71.00    0.7395    1.4808
     72.00    0.7158    1.4985
     73.00    0.6912    1.5153
     74.00    0.6659    1.5313
     75.00    0.6398    1.5464
     76.00    0.6129    1.5606
     77.00    0.5852    1.5740
     78.00    0.5569    1.5864
     79.00    0.5279    1.5979
     80.00    0.4982    1.6084
     81.00    0.4679    1.6180
     82.00    0.4370    1.6266
     83.00    0.4056    1.6343
     84.00    0.3736    1.6409
     85.00    0.3412    1.6465
     86.00    0.3084    1.6512
     87.00    0.2751    1.6548
     88.00    0.2415    1.6575
     89.00    0.2076    1.6591
     90.00    0.1734    1.6597
     91.00    0.1390    1.6592
     92.00    0.1044    1.6578
     93.00    0.0696    1.6554
     94.00    0.0348    1.6519
     95.00   -0.0001    1.6474
     96.00   -0.0350    1.6419
     97.00   -0.0699    1.6355
     98.00   -0.1047    1.6280
     99.00   -0.1393    1.6196
    100.00   -0.1738    1.6102
    101.00   -0.2080    1.5999
    102.00   -0.2420    1.5886
    103.00   -0.2756    1.5764
    104.00   -0.3089    1.5632
    105.00   -0.3418    1.5492
    106.00   -0.3742    1.5343
    107.00   -0.4061    1.5185
    108.00   -0.4449    1.5019
    109.00   -0.4755    1.4845
    110.00   -0.5055    1.4663
    111.00   -0.5347    1.4473
    112.00   -0.5633    1.4276
    113.00   -0.5911    1.4071
    114.00   -0.6181    1.3859
    115.00   -0.6443    1.3640
    116.00   -0.6696    1.3415
    117.00   -0.6940    1.3184
    118.00   -0.7174    1.2947
    119.00   -0.7399    1.2704
    120.00   -0.7613    1.2456
    121.00   -0.7817    1.2203
    122.00   -0.8011    1.1945
    123.00   -0.8193    1.1683
    124.00   -0.8364    1.1416
    125.00   -0.8524    1.1146
    126.00   -0.8671    1.0872
    127.00   -0.8807    1.0596
    128.00   -0.8931    1.0316
    129.00   -0.9042    1.0034
    130.00   -0.9141    0.9751
    131.00   -0.9227    0.9465
    132.00   -0.9301    0.9178
    133.00   -0.9361    0.8890
    134.00   -0.9409    0.8601
    135.00   -0.9444    0.8312
    136.00   -0.9466    0.8023
    137.00   -0.9476    0.7735
    138.00   -0.9472    0.7447
    139.00   -0.9455    0.7160
    140.00   -0.9426    0.6875
    141.00   -0.9384    0.6592
    142.00   -0.9330    0.6311
    143.00   -0.9263    0.6032
    144.00   -0.9184    0.5756
    145.00   -0.9092    0.5483
    146.00   -0.8989    0.5214
    147.00   -0.8875    0.4948
    148.00   -0.8749    0.4687
    149.00   -0.8613    0.4430
    150.00   -0.8465    0.4178
    151.00   -0.8308    0.3931
    152.00   -0.8141    0.3690
    153.00   -0.7965    0.3454
    154.00   -0.7781    0.3224
    155.00   -0.7588    0.3000
    156.00   -0.7389    0.2783
    157.00   -0.7184    0.2572
    158.00   -0.6974    0.2369
    159.00   -0.6761    0.2173
    160.00   -0.6547    0.1984
    161.00   -0.6334    0.1803
    162.00   -0.6126    0.1630
    163.00   -0.5927    0.1465
    164.00   -0.5742    0.1309
    165.00   -0.5582    0.1161
    166.00   -0.5456    0.1022
    167.00   -0.5382    0.0891
    168.00   -0.5377    0.0770
    169.00   -0.5460    0.0658
    170.00   -0.5637    0.0555
    171.00   -0.5869    0.0462
    172.00   -0.6043    0.0378
    173.00   -0.5986    0.0304
    174.00   -0.5588    0.0239
    175.00   -0.4893    0.0185
    176.00   -0.4036    0.0140
    177.00   -0.3128    0.0105
    178.00   -0.2213    0.0080
    179.00   -0.1298    0.0065
    180.00   -0.0384    0.0060
    180.00   -0.0384    0.0060
