AeroDyn airfoil file Created with QBlade v0.91b 32-Bit on 03.06.2016 at 16:01:40 Compatible with AeroDyn v13.0.
Polar "T1_Re1.100_M0.00_N9.0 360 M" on Foil "T1_Re1.100_M0.00_N9.0" :: generated by QBlade
1              Number of airfoil tables in this file
0              Table ID parameter
12.50          Stall angle (deg)
0              No longer used, enter zero
0              No longer used, enter zero
0              No longer used, enter zero
-1.39          Angle of attack for zero Cn for linear Cn curve (deg)
6.95125        Cn slope for zero lift for linear Cn curve (1/rad)
1.1254         Cn at stall value for positive angle of attack for linear Cn curve
-0.9291        Cn at stall value for negative angle of attack for linear Cn curve
-1.50          Angle of attack for minimum CD (deg)
0.0088         Minimum CD value
   -180.00   -0.0388    0.0060
   -179.00    0.0586    0.0065
   -178.00    0.1553    0.0079
   -177.00    0.2473    0.0104
   -176.00    0.3251    0.0138
   -175.00    0.3764    0.0181
   -174.00    0.3969    0.0234
   -173.00    0.3945    0.0297
   -172.00    0.3831    0.0369
   -171.00    0.3726    0.0450
   -170.00    0.3676    0.0540
   -169.00    0.3684    0.0640
   -168.00    0.3744    0.0748
   -167.00    0.3842    0.0866
   -166.00    0.3967    0.0992
   -165.00    0.4112    0.1126
   -164.00    0.4268    0.1269
   -163.00    0.4430    0.1420
   -162.00    0.4596    0.1579
   -161.00    0.4762    0.1746
   -160.00    0.4927    0.1920
   -159.00    0.5088    0.2102
   -158.00    0.5244    0.2291
   -157.00    0.5395    0.2486
   -156.00    0.5539    0.2689
   -155.00    0.5677    0.2898
   -154.00    0.5806    0.3113
   -153.00    0.5928    0.3334
   -152.00    0.6042    0.3560
   -151.00    0.6147    0.3792
   -150.00    0.6243    0.4029
   -149.00    0.6330    0.4271
   -148.00    0.6408    0.4517
   -147.00    0.6477    0.4767
   -146.00    0.6537    0.5021
   -145.00    0.6587    0.5279
   -144.00    0.6628    0.5540
   -143.00    0.6660    0.5804
   -142.00    0.6683    0.6070
   -141.00    0.6696    0.6339
   -140.00    0.6701    0.6610
   -139.00    0.6696    0.6882
   -138.00    0.6682    0.7156
   -137.00    0.6659    0.7430
   -136.00    0.6627    0.7706
   -135.00    0.6587    0.7981
   -134.00    0.6538    0.8257
   -133.00    0.6481    0.8532
   -132.00    0.6415    0.8806
   -131.00    0.6341    0.9079
   -130.00    0.6260    0.9351
   -129.00    0.6170    0.9621
   -128.00    0.6073    0.9889
   -127.00    0.5969    1.0155
   -126.00    0.5858    1.0418
   -125.00    0.5739    1.0678
   -124.00    0.5614    1.0935
   -123.00    0.5483    1.1188
   -122.00    0.5345    1.1437
   -121.00    0.5201    1.1682
   -120.00    0.5051    1.1922
   -119.00    0.4895    1.2158
   -118.00    0.4735    1.2388
   -117.00    0.4569    1.2613
   -116.00    0.4398    1.2833
   -115.00    0.4222    1.3046
   -114.00    0.4043    1.3254
   -113.00    0.3859    1.3454
   -112.00    0.3671    1.3649
   -111.00    0.3479    1.3836
   -110.00    0.3284    1.4016
   -109.00    0.3080    1.4189
   -108.00    0.2879    1.4354
   -107.00    0.2676    1.4511
   -106.00    0.2469    1.4661
   -105.00    0.2261    1.4802
   -104.00    0.2051    1.4935
   -103.00    0.1839    1.5060
   -102.00    0.1626    1.5176
   -101.00    0.1411    1.5283
   -100.00    0.1195    1.5381
    -99.00    0.0979    1.5470
    -98.00    0.0762    1.5551
    -97.00    0.0545    1.5622
    -96.00    0.0328    1.5683
    -95.00    0.0110    1.5736
    -94.00   -0.0106    1.5778
    -93.00   -0.0323    1.5812
    -92.00   -0.0538    1.5836
    -91.00   -0.0753    1.5850
    -90.00   -0.0966    1.5855
    -89.00   -0.1178    1.5850
    -88.00   -0.1388    1.5836
    -87.00   -0.1596    1.5812
    -86.00   -0.1802    1.5778
    -85.00   -0.2006    1.5735
    -84.00   -0.2208    1.5683
    -83.00   -0.2407    1.5621
    -82.00   -0.2603    1.5550
    -81.00   -0.2797    1.5470
    -80.00   -0.2987    1.5381
    -79.00   -0.3174    1.5282
    -78.00   -0.3357    1.5175
    -77.00   -0.3537    1.5059
    -76.00   -0.3713    1.4935
    -75.00   -0.3884    1.4802
    -74.00   -0.4052    1.4660
    -73.00   -0.4215    1.4511
    -72.00   -0.4374    1.4353
    -71.00   -0.4529    1.4188
    -70.00   -0.4678    1.4015
    -69.00   -0.4823    1.3835
    -68.00   -0.4963    1.3648
    -67.00   -0.5097    1.3454
    -66.00   -0.5226    1.3253
    -65.00   -0.5350    1.3046
    -64.00   -0.5468    1.2832
    -63.00   -0.5581    1.2613
    -62.00   -0.5688    1.2388
    -61.00   -0.5789    1.2157
    -60.00   -0.5884    1.1921
    -59.00   -0.5973    1.1681
    -58.00   -0.6055    1.1436
    -57.00   -0.6132    1.1187
    -56.00   -0.6202    1.0934
    -55.00   -0.6266    1.0677
    -54.00   -0.6323    1.0417
    -53.00   -0.6373    1.0154
    -52.00   -0.6417    0.9888
    -51.00   -0.6455    0.9619
    -50.00   -0.6485    0.9349
    -49.00   -0.6509    0.9077
    -48.00   -0.6525    0.8804
    -47.00   -0.6535    0.8529
    -46.00   -0.6538    0.8254
    -45.00   -0.6534    0.7978
    -44.00   -0.6523    0.7703
    -43.00   -0.6506    0.7427
    -42.00   -0.6481    0.7152
    -41.00   -0.6449    0.6879
    -40.00   -0.6411    0.6606
    -39.00   -0.6365    0.6335
    -38.00   -0.6313    0.6066
    -37.00   -0.6254    0.5799
    -36.00   -0.6189    0.5534
    -35.00   -0.6117    0.5273
    -34.00   -0.6039    0.5014
    -33.00   -0.5954    0.4759
    -32.00   -0.5864    0.4508
    -31.00   -0.5769    0.4261
    -30.00   -0.5668    0.4018
    -29.00   -0.5563    0.3780
    -28.00   -0.5455    0.3546
    -27.00   -0.5343    0.3318
    -26.00   -0.5230    0.3095
    -25.00   -0.5117    0.2877
    -24.00   -0.5007    0.2664
    -23.00   -0.4903    0.2457
    -22.00   -0.4810    0.2255
    -21.00   -0.4737    0.2059
    -20.00   -0.4694    0.1867
    -19.00   -0.4700    0.1679
    -18.00   -0.4783    0.1493
    -17.00   -0.4991    0.1307
    -16.00   -0.5394    0.1119
    -15.00   -0.6094    0.0923
    -14.00   -0.7192    0.0719
    -13.00   -0.8653    0.0515
    -12.00   -1.0060    0.0340
    -11.00   -1.0698    0.0229
    -10.00   -0.9781    0.0113
     -9.50   -0.9403    0.0108
     -9.00   -0.8925    0.0104
     -8.50   -0.8379    0.0101
     -8.00   -0.7813    0.0101
     -7.50   -0.7285    0.0097
     -7.00   -0.6716    0.0095
     -6.50   -0.6124    0.0095
     -6.00   -0.5531    0.0095
     -5.50   -0.4947    0.0094
     -5.00   -0.4359    0.0091
     -4.50   -0.3761    0.0090
     -4.00   -0.3158    0.0090
     -3.50   -0.2557    0.0090
     -3.00   -0.1952    0.0091
     -2.50   -0.1336    0.0090
     -2.00   -0.0735    0.0088
     -1.50   -0.0129    0.0088
     -1.00    0.0476    0.0088
     -0.50    0.1075    0.0089
      0.00    0.1681    0.0090
      0.50    0.2297    0.0090
      1.00    0.2909    0.0090
      1.50    0.3513    0.0089
      2.00    0.4115    0.0090
      2.50    0.4710    0.0091
      3.00    0.5293    0.0093
      3.50    0.5888    0.0095
      4.00    0.6488    0.0095
      4.50    0.7082    0.0095
      5.00    0.7672    0.0096
      5.50    0.8246    0.0098
      6.00    0.8792    0.0101
      6.50    0.9328    0.0104
      7.00    0.9890    0.0105
      7.50    1.0438    0.0106
      8.00    1.0960    0.0108
      8.50    1.1363    0.0112
      9.00    1.1679    0.0119
      9.50    1.2141    0.0123
     10.00    1.2572    0.0129
     10.50    1.2915    0.0139
     11.00    1.3137    0.0155
     11.50    1.3527    0.0165
     12.00    1.3630    0.0189
     12.50    1.3813    0.0211
     13.00    1.3723    0.0251
     13.50    1.3661    0.0294
     14.00    1.3629    0.0337
     14.50    1.3456    0.0395
     15.00    1.3344    0.0451
     15.50    1.3317    0.0502
     16.00    1.3136    0.0571
     16.50    1.3078    0.0631
     17.00    1.3076    0.0686
     17.50    1.2994    0.0753
     18.00    1.3050    0.0806
     18.50    1.3022    0.0869
     19.00    1.3058    0.0926
     19.50    1.3181    0.0973
     20.00    1.3146    0.1042
     20.50    1.3187    0.1101
     21.00    1.3231    0.1160
     21.50    1.3277    0.1216
     22.00    1.3281    0.1268
     22.50    1.3296    0.1333
     23.00    1.3316    0.1397
     23.50    1.3340    0.1460
     24.00    1.3165    0.1554
     24.50    1.3177    0.1619
     25.00    1.3046    0.1708
     26.00    1.2823    0.2489
     27.00    1.2640    0.2732
     28.00    1.2472    0.2983
     29.00    1.2320    0.3239
     30.00    1.2185    0.3501
     31.00    1.2063    0.3768
     32.00    1.1956    0.4040
     33.00    1.1861    0.4315
     34.00    1.1777    0.4594
     35.00    1.1702    0.4876
     36.00    1.1636    0.5161
     37.00    1.1576    0.5449
     38.00    1.1522    0.5738
     39.00    1.1471    0.6029
     40.00    1.1424    0.6322
     41.00    1.1378    0.6615
     42.00    1.1332    0.6910
     43.00    1.1287    0.7205
     44.00    1.1240    0.7500
     45.00    1.1190    0.7794
     46.00    1.1138    0.8088
     47.00    1.1083    0.8382
     48.00    1.1023    0.8674
     49.00    1.0958    0.8964
     50.00    1.0888    0.9253
     51.00    1.0811    0.9540
     52.00    1.0729    0.9824
     53.00    1.0640    1.0106
     54.00    1.0544    1.0384
     55.00    1.0440    1.0659
     56.00    1.0329    1.0930
     57.00    1.0210    1.1198
     58.00    1.0083    1.1461
     59.00    0.9948    1.1719
     60.00    0.9805    1.1972
     61.00    0.9653    1.2221
     62.00    0.9492    1.2464
     63.00    0.9323    1.2701
     64.00    0.9145    1.2932
     65.00    0.8959    1.3157
     66.00    0.8764    1.3375
     67.00    0.8560    1.3587
     68.00    0.8348    1.3791
     69.00    0.8128    1.3988
     70.00    0.7899    1.4178
     71.00    0.7662    1.4360
     72.00    0.7417    1.4534
     73.00    0.7165    1.4700
     74.00    0.6904    1.4858
     75.00    0.6637    1.5007
     76.00    0.6362    1.5147
     77.00    0.6080    1.5279
     78.00    0.5791    1.5402
     79.00    0.5496    1.5515
     80.00    0.5195    1.5619
     81.00    0.4888    1.5714
     82.00    0.4576    1.5800
     83.00    0.4258    1.5875
     84.00    0.3936    1.5942
     85.00    0.3609    1.5998
     86.00    0.3278    1.6044
     87.00    0.2943    1.6081
     88.00    0.2605    1.6108
     89.00    0.2264    1.6125
     90.00    0.1921    1.6132
     91.00    0.1576    1.6129
     92.00    0.1228    1.6116
     93.00    0.0880    1.6093
     94.00    0.0531    1.6060
     95.00    0.0181    1.6018
     96.00   -0.0168    1.5965
     97.00   -0.0517    1.5903
     98.00   -0.0865    1.5832
     99.00   -0.1211    1.5750
    100.00   -0.1555    1.5660
    101.00   -0.1897    1.5560
    102.00   -0.2236    1.5451
    103.00   -0.2572    1.5332
    104.00   -0.2904    1.5205
    105.00   -0.3232    1.5069
    106.00   -0.3555    1.4925
    107.00   -0.3873    1.4772
    108.00   -0.4186    1.4611
    109.00   -0.4492    1.4442
    110.00   -0.4792    1.4265
    111.00   -0.5085    1.4081
    112.00   -0.5562    1.3889
    113.00   -0.5836    1.3690
    114.00   -0.6102    1.3485
    115.00   -0.6360    1.3272
    116.00   -0.6609    1.3054
    117.00   -0.6850    1.2829
    118.00   -0.7080    1.2598
    119.00   -0.7301    1.2362
    120.00   -0.7512    1.2121
    121.00   -0.7713    1.1875
    122.00   -0.7903    1.1624
    123.00   -0.8082    1.1369
    124.00   -0.8250    1.1110
    125.00   -0.8407    1.0847
    126.00   -0.8552    1.0581
    127.00   -0.8685    1.0312
    128.00   -0.8806    1.0040
    129.00   -0.8915    0.9766
    130.00   -0.9011    0.9490
    131.00   -0.9095    0.9212
    132.00   -0.9167    0.8933
    133.00   -0.9225    0.8653
    134.00   -0.9272    0.8372
    135.00   -0.9305    0.8091
    136.00   -0.9326    0.7810
    137.00   -0.9334    0.7529
    138.00   -0.9329    0.7249
    139.00   -0.9312    0.6970
    140.00   -0.9282    0.6693
    141.00   -0.9239    0.6417
    142.00   -0.9184    0.6143
    143.00   -0.9117    0.5872
    144.00   -0.9038    0.5603
    145.00   -0.8947    0.5338
    146.00   -0.8845    0.5076
    147.00   -0.8731    0.4818
    148.00   -0.8606    0.4563
    149.00   -0.8470    0.4313
    150.00   -0.8324    0.4068
    151.00   -0.8168    0.3828
    152.00   -0.8002    0.3593
    153.00   -0.7826    0.3363
    154.00   -0.7642    0.3139
    155.00   -0.7450    0.2921
    156.00   -0.7251    0.2710
    157.00   -0.7044    0.2505
    158.00   -0.6831    0.2307
    159.00   -0.6613    0.2116
    160.00   -0.6391    0.1933
    161.00   -0.6167    0.1757
    162.00   -0.5940    0.1588
    163.00   -0.5715    0.1428
    164.00   -0.5492    0.1276
    165.00   -0.5274    0.1132
    166.00   -0.5065    0.0996
    167.00   -0.4870    0.0869
    168.00   -0.4693    0.0751
    169.00   -0.4541    0.0642
    170.00   -0.4421    0.0542
    171.00   -0.4337    0.0451
    172.00   -0.4289    0.0370
    173.00   -0.4259    0.0297
    174.00   -0.4203    0.0235
    175.00   -0.4040    0.0182
    176.00   -0.3682    0.0138
    177.00   -0.3082    0.0104
    178.00   -0.2277    0.0080
    179.00   -0.1354    0.0065
    180.00   -0.0388    0.0060
    180.00   -0.0388    0.0060
