AeroDyn airfoil file Created with QBlade v0.91b 32-Bit on 03.06.2016 at 14:45:19 Compatible with AeroDyn v13.0.
Polar "T1_Re3.900_M0.00_N9.0 360 M" on Foil "T1_Re3.900_M0.00_N9.0" :: generated by QBlade
1              Number of airfoil tables in this file
0              Table ID parameter
30.00          Stall angle (deg)
0              No longer used, enter zero
0              No longer used, enter zero
0              No longer used, enter zero
-1.30          Angle of attack for zero Cn for linear Cn curve (deg)
6.51705        Cn slope for zero lift for linear Cn curve (1/rad)
0.7873         Cn at stall value for positive angle of attack for linear Cn curve
-0.6711        Cn at stall value for negative angle of attack for linear Cn curve
-1.00          Angle of attack for minimum CD (deg)
0.0117         Minimum CD value
   -180.00   -0.0360    0.0060
   -179.00    0.0540    0.0065
   -178.00    0.1439    0.0079
   -177.00    0.2339    0.0104
   -176.00    0.3239    0.0138
   -175.00    0.4139    0.0181
   -174.00    0.5038    0.0234
   -173.00    0.5938    0.0297
   -172.00    0.6838    0.0369
   -171.00    0.7704    0.0450
   -170.00    0.8302    0.0540
   -169.00    0.8218    0.0640
   -168.00    0.7402    0.0748
   -167.00    0.6383    0.0866
   -166.00    0.5606    0.0992
   -165.00    0.5150    0.1126
   -164.00    0.4935    0.1269
   -163.00    0.4872    0.1420
   -162.00    0.4899    0.1579
   -161.00    0.4979    0.1746
   -160.00    0.5090    0.1920
   -159.00    0.5217    0.2102
   -158.00    0.5353    0.2291
   -157.00    0.5491    0.2486
   -156.00    0.5629    0.2689
   -155.00    0.5763    0.2898
   -154.00    0.5892    0.3113
   -153.00    0.6015    0.3334
   -152.00    0.6130    0.3560
   -151.00    0.6238    0.3792
   -150.00    0.6338    0.4029
   -149.00    0.6429    0.4271
   -148.00    0.6511    0.4517
   -147.00    0.6584    0.4767
   -146.00    0.6648    0.5021
   -145.00    0.6703    0.5279
   -144.00    0.6748    0.5540
   -143.00    0.6784    0.5804
   -142.00    0.6810    0.6070
   -141.00    0.6827    0.6339
   -140.00    0.6835    0.6610
   -139.00    0.6833    0.6882
   -138.00    0.6822    0.7156
   -137.00    0.6802    0.7430
   -136.00    0.6773    0.7706
   -135.00    0.6735    0.7981
   -134.00    0.6688    0.8257
   -133.00    0.6632    0.8532
   -132.00    0.6568    0.8806
   -131.00    0.6495    0.9079
   -130.00    0.6414    0.9351
   -129.00    0.6326    0.9621
   -128.00    0.6229    0.9889
   -127.00    0.6124    1.0155
   -126.00    0.6012    1.0418
   -125.00    0.5893    1.0678
   -124.00    0.5767    1.0935
   -123.00    0.5634    1.1188
   -122.00    0.5494    1.1437
   -121.00    0.5348    1.1682
   -120.00    0.5195    1.1922
   -119.00    0.5037    1.2158
   -118.00    0.4873    1.2388
   -117.00    0.4704    1.2613
   -116.00    0.4529    1.2833
   -115.00    0.4350    1.3046
   -114.00    0.4166    1.3254
   -113.00    0.3977    1.3454
   -112.00    0.3784    1.3649
   -111.00    0.3587    1.3836
   -110.00    0.3387    1.4016
   -109.00    0.3183    1.4189
   -108.00    0.2976    1.4354
   -107.00    0.2766    1.4511
   -106.00    0.2554    1.4661
   -105.00    0.2339    1.4802
   -104.00    0.2122    1.4935
   -103.00    0.1903    1.5060
   -102.00    0.1680    1.5176
   -101.00    0.1458    1.5283
   -100.00    0.1235    1.5381
    -99.00    0.1011    1.5470
    -98.00    0.0787    1.5550
    -97.00    0.0562    1.5621
    -96.00    0.0337    1.5683
    -95.00    0.0112    1.5735
    -94.00   -0.0112    1.5778
    -93.00   -0.0336    1.5812
    -92.00   -0.0559    1.5836
    -91.00   -0.0781    1.5850
    -90.00   -0.1002    1.5855
    -89.00   -0.1221    1.5850
    -88.00   -0.1439    1.5836
    -87.00   -0.1654    1.5812
    -86.00   -0.1868    1.5778
    -85.00   -0.2079    1.5735
    -84.00   -0.2288    1.5683
    -83.00   -0.2494    1.5621
    -82.00   -0.2697    1.5550
    -81.00   -0.2896    1.5470
    -80.00   -0.3093    1.5381
    -79.00   -0.3286    1.5282
    -78.00   -0.3475    1.5175
    -77.00   -0.3660    1.5059
    -76.00   -0.3841    1.4935
    -75.00   -0.4019    1.4802
    -74.00   -0.4191    1.4660
    -73.00   -0.4359    1.4511
    -72.00   -0.4522    1.4353
    -71.00   -0.4681    1.4188
    -70.00   -0.4834    1.4015
    -69.00   -0.4983    1.3835
    -68.00   -0.5126    1.3648
    -67.00   -0.5263    1.3454
    -66.00   -0.5395    1.3253
    -65.00   -0.5521    1.3045
    -64.00   -0.5642    1.2832
    -63.00   -0.5756    1.2612
    -62.00   -0.5864    1.2387
    -61.00   -0.5967    1.2157
    -60.00   -0.6062    1.1921
    -59.00   -0.6152    1.1681
    -58.00   -0.6235    1.1436
    -57.00   -0.6312    1.1187
    -56.00   -0.6381    1.0933
    -55.00   -0.6445    1.0677
    -54.00   -0.6501    1.0416
    -53.00   -0.6551    1.0153
    -52.00   -0.6593    0.9887
    -51.00   -0.6629    0.9619
    -50.00   -0.6658    0.9349
    -49.00   -0.6679    0.9077
    -48.00   -0.6694    0.8803
    -47.00   -0.6701    0.8529
    -46.00   -0.6702    0.8254
    -45.00   -0.6695    0.7978
    -44.00   -0.6681    0.7702
    -43.00   -0.6660    0.7427
    -42.00   -0.6632    0.7152
    -41.00   -0.6597    0.6878
    -40.00   -0.6555    0.6605
    -39.00   -0.6505    0.6334
    -38.00   -0.6449    0.6065
    -37.00   -0.6386    0.5798
    -36.00   -0.6317    0.5534
    -35.00   -0.6241    0.5272
    -34.00   -0.6158    0.5014
    -33.00   -0.6069    0.4759
    -32.00   -0.5974    0.4508
    -31.00   -0.5874    0.4260
    -30.00   -0.5768    0.4018
    -29.00   -0.5657    0.3779
    -28.00   -0.5542    0.3546
    -27.00   -0.5423    0.3318
    -26.00   -0.5302    0.3095
    -25.00   -0.5179    0.2877
    -24.00   -0.5057    0.2665
    -23.00   -0.4937    0.2459
    -22.00   -0.4824    0.2258
    -21.00   -0.4721    0.2063
    -20.00   -0.4636    0.1873
    -19.00   -0.4579    0.1689
    -18.00   -0.4566    0.1509
    -17.00   -0.4620    0.1332
    -16.00   -0.4779    0.1157
    -15.00   -0.5094    0.0982
    -14.00   -0.5633    0.0805
    -13.00   -0.6449    0.0626
    -12.00   -0.7484    0.0455
    -11.00   -0.8432    0.0312
    -10.00   -0.8235    0.0188
     -9.50   -0.7884    0.0176
     -9.00   -0.7525    0.0165
     -8.50   -0.7148    0.0155
     -8.00   -0.6756    0.0147
     -7.50   -0.6361    0.0139
     -7.00   -0.6030    0.0132
     -6.50   -0.5691    0.0128
     -6.00   -0.5202    0.0126
     -5.50   -0.4688    0.0124
     -5.00   -0.4156    0.0123
     -4.50   -0.3613    0.0121
     -4.00   -0.3061    0.0120
     -3.50   -0.2503    0.0119
     -3.00   -0.1940    0.0118
     -2.50   -0.1373    0.0118
     -2.00   -0.0803    0.0118
     -1.50   -0.0233    0.0117
     -1.00    0.0339    0.0117
     -0.50    0.0910    0.0117
      0.00    0.1480    0.0118
      0.50    0.2048    0.0118
      1.00    0.2613    0.0119
      1.50    0.3174    0.0119
      2.00    0.3729    0.0120
      2.50    0.4277    0.0121
      3.00    0.4815    0.0123
      3.50    0.5339    0.0124
      4.00    0.5843    0.0126
      4.50    0.6261    0.0128
      5.00    0.6632    0.0132
      5.50    0.7060    0.0137
      6.00    0.7488    0.0144
      6.50    0.7907    0.0151
      7.00    0.8314    0.0160
      7.50    0.8711    0.0169
      8.00    0.9099    0.0180
      8.50    0.9461    0.0192
      9.00    0.9802    0.0206
      9.50    1.0143    0.0220
     10.00    1.0463    0.0236
     10.50    1.0743    0.0255
     11.00    1.1064    0.0272
     11.50    1.1317    0.0295
     12.00    1.1623    0.0313
     12.50    1.1844    0.0340
     13.00    1.2141    0.0361
     13.50    1.2330    0.0393
     14.00    1.2612    0.0416
     14.50    1.2759    0.0452
     15.00    1.3031    0.0477
     15.50    1.3279    0.0504
     16.00    1.3398    0.0546
     16.50    1.3658    0.0573
     17.00    1.3655    0.0626
     17.50    1.3803    0.0665
     18.00    1.3666    0.0737
     18.50    1.3848    0.0774
     19.00    1.3995    0.0815
     19.50    1.3784    0.0898
     20.00    1.3891    0.0945
     20.50    1.3642    0.1039
     21.00    1.3678    0.1096
     21.50    1.3761    0.1149
     22.00    1.3677    0.1225
     22.50    1.3798    0.1270
     23.00    1.3687    0.1351
     23.50    1.3842    0.1395
     24.00    1.4026    0.1433
     24.50    1.4170    0.1477
     25.00    1.4079    0.1556
     25.50    1.4216    0.1600
     26.00    1.4273    0.1655
     26.50    1.4156    0.1738
     27.00    1.4255    0.1787
     27.50    1.4117    0.1873
     28.00    1.4260    0.1909
     28.50    1.4462    0.1958
     29.00    1.4332    0.2035
     29.50    1.4449    0.2075
     30.00    1.4522    0.2123
     31.00    1.3898    0.3438
     32.00    1.3847    0.3696
     33.00    1.3793    0.3960
     34.00    1.3736    0.4230
     35.00    1.3677    0.4504
     36.00    1.3616    0.4783
     37.00    1.3553    0.5066
     38.00    1.3487    0.5352
     39.00    1.3419    0.5642
     40.00    1.3349    0.5934
     41.00    1.3277    0.6228
     42.00    1.3201    0.6524
     43.00    1.3122    0.6821
     44.00    1.3040    0.7119
     45.00    1.2954    0.7418
     46.00    1.2864    0.7716
     47.00    1.2769    0.8014
     48.00    1.2670    0.8311
     49.00    1.2566    0.8608
     50.00    1.2456    0.8902
     51.00    1.2341    0.9195
     52.00    1.2219    0.9486
     53.00    1.2092    0.9774
     54.00    1.1958    1.0059
     55.00    1.1818    1.0341
     56.00    1.1671    1.0619
     57.00    1.1517    1.0894
     58.00    1.1355    1.1164
     59.00    1.1187    1.1429
     60.00    1.1011    1.1690
     61.00    1.0828    1.1945
     62.00    1.0637    1.2195
     63.00    1.0439    1.2439
     64.00    1.0233    1.2677
     65.00    1.0019    1.2909
     66.00    0.9798    1.3134
     67.00    0.9570    1.3352
     68.00    0.9334    1.3563
     69.00    0.9090    1.3767
     70.00    0.8839    1.3963
     71.00    0.8581    1.4151
     72.00    0.8316    1.4331
     73.00    0.8044    1.4503
     74.00    0.7765    1.4667
     75.00    0.7480    1.4822
     76.00    0.7188    1.4968
     77.00    0.6891    1.5105
     78.00    0.6587    1.5233
     79.00    0.6278    1.5352
     80.00    0.5963    1.5462
     81.00    0.5643    1.5562
     82.00    0.5318    1.5652
     83.00    0.4989    1.5733
     84.00    0.4655    1.5803
     85.00    0.4318    1.5864
     86.00    0.3977    1.5916
     87.00    0.3633    1.5957
     88.00    0.3287    1.5988
     89.00    0.2937    1.6009
     90.00    0.2586    1.6020
     91.00    0.2233    1.6021
     92.00    0.1879    1.6012
     93.00    0.1524    1.5993
     94.00    0.1169    1.5964
     95.00    0.0813    1.5925
     96.00    0.0458    1.5876
     97.00    0.0104    1.5817
     98.00   -0.0249    1.5749
     99.00   -0.0600    1.5671
    100.00   -0.0949    1.5583
    101.00   -0.1296    1.5486
    102.00   -0.1639    1.5380
    103.00   -0.2747    1.5265
    104.00   -0.3067    1.5140
    105.00   -0.3383    1.5007
    106.00   -0.3694    1.4865
    107.00   -0.4001    1.4715
    108.00   -0.4302    1.4556
    109.00   -0.4598    1.4389
    110.00   -0.4888    1.4215
    111.00   -0.5171    1.4033
    112.00   -0.5447    1.3843
    113.00   -0.5717    1.3646
    114.00   -0.5978    1.3443
    115.00   -0.6231    1.3232
    116.00   -0.6476    1.3015
    117.00   -0.6712    1.2792
    118.00   -0.6939    1.2564
    119.00   -0.7156    1.2329
    120.00   -0.7364    1.2090
    121.00   -0.7561    1.1845
    122.00   -0.7748    1.1596
    123.00   -0.7925    1.1342
    124.00   -0.8091    1.1085
    125.00   -0.8245    1.0823
    126.00   -0.8388    1.0558
    127.00   -0.8520    1.0290
    128.00   -0.8639    1.0020
    129.00   -0.8747    0.9747
    130.00   -0.8843    0.9472
    131.00   -0.8927    0.9195
    132.00   -0.8998    0.8917
    133.00   -0.9057    0.8638
    134.00   -0.9104    0.8358
    135.00   -0.9138    0.8077
    136.00   -0.9159    0.7797
    137.00   -0.9168    0.7517
    138.00   -0.9165    0.7238
    139.00   -0.9149    0.6960
    140.00   -0.9121    0.6683
    141.00   -0.9080    0.6408
    142.00   -0.9028    0.6135
    143.00   -0.8963    0.5864
    144.00   -0.8887    0.5596
    145.00   -0.8799    0.5332
    146.00   -0.8699    0.5070
    147.00   -0.8589    0.4812
    148.00   -0.8467    0.4558
    149.00   -0.8336    0.4309
    150.00   -0.8194    0.4064
    151.00   -0.8043    0.3824
    152.00   -0.7883    0.3589
    153.00   -0.7714    0.3360
    154.00   -0.7539    0.3137
    155.00   -0.7358    0.2919
    156.00   -0.7172    0.2708
    157.00   -0.6983    0.2504
    158.00   -0.6794    0.2306
    159.00   -0.6609    0.2115
    160.00   -0.6434    0.1932
    161.00   -0.6276    0.1756
    162.00   -0.6150    0.1588
    163.00   -0.6074    0.1427
    164.00   -0.6082    0.1275
    165.00   -0.6222    0.1132
    166.00   -0.6562    0.0996
    167.00   -0.7157    0.0869
    168.00   -0.7958    0.0752
    169.00   -0.8659    0.0642
    170.00   -0.8827    0.0543
    171.00   -0.8364    0.0452
    172.00   -0.7554    0.0370
    173.00   -0.6658    0.0298
    174.00   -0.5758    0.0235
    175.00   -0.4859    0.0182
    176.00   -0.3959    0.0139
    177.00   -0.3059    0.0105
    178.00   -0.2159    0.0080
    179.00   -0.1260    0.0066
    180.00   -0.0360    0.0061
    180.00   -0.0360    0.0060
