AeroDyn airfoil file Created with QBlade v0.91b 32-Bit on 03.06.2016 at 14:42:39 Compatible with AeroDyn v13.0.
Polar "T1_Re3.600_M0.00_N9.0 360 M" on Foil "T1_Re3.600_M0.00_N9.0" :: generated by QBlade
1              Number of airfoil tables in this file
0              Table ID parameter
19.00          Stall angle (deg)
0              No longer used, enter zero
0              No longer used, enter zero
0              No longer used, enter zero
-1.43          Angle of attack for zero Cn for linear Cn curve (deg)
6.72212        Cn slope for zero lift for linear Cn curve (1/rad)
0.9689         Cn at stall value for positive angle of attack for linear Cn curve
-0.9496        Cn at stall value for negative angle of attack for linear Cn curve
-1.50          Angle of attack for minimum CD (deg)
0.0091         Minimum CD value
   -180.00   -0.0418    0.0060
   -179.00    0.0518    0.0065
   -178.00    0.1454    0.0080
   -177.00    0.2390    0.0106
   -176.00    0.3326    0.0141
   -175.00    0.4262    0.0187
   -174.00    0.5198    0.0242
   -173.00    0.6133    0.0308
   -172.00    0.7022    0.0383
   -171.00    0.7643    0.0468
   -170.00    0.7655    0.0562
   -169.00    0.7028    0.0666
   -168.00    0.6185    0.0780
   -167.00    0.5508    0.0903
   -166.00    0.5094    0.1034
   -165.00    0.4894    0.1175
   -164.00    0.4836    0.1324
   -163.00    0.4867    0.1482
   -162.00    0.4952    0.1649
   -161.00    0.5068    0.1823
   -160.00    0.5203    0.2005
   -159.00    0.5347    0.2196
   -158.00    0.5494    0.2393
   -157.00    0.5641    0.2598
   -156.00    0.5784    0.2810
   -155.00    0.5923    0.3028
   -154.00    0.6056    0.3253
   -153.00    0.6182    0.3484
   -152.00    0.6299    0.3721
   -151.00    0.6409    0.3964
   -150.00    0.6509    0.4211
   -149.00    0.6601    0.4464
   -148.00    0.6683    0.4722
   -147.00    0.6756    0.4984
   -146.00    0.6819    0.5250
   -145.00    0.6873    0.5519
   -144.00    0.6917    0.5792
   -143.00    0.6951    0.6068
   -142.00    0.6975    0.6347
   -141.00    0.6990    0.6628
   -140.00    0.6995    0.6912
   -139.00    0.6991    0.7196
   -138.00    0.6977    0.7483
   -137.00    0.6954    0.7770
   -136.00    0.6922    0.8058
   -135.00    0.6880    0.8346
   -134.00    0.6830    0.8634
   -133.00    0.6770    0.8922
   -132.00    0.6702    0.9209
   -131.00    0.6626    0.9495
   -130.00    0.6541    0.9779
   -129.00    0.6448    1.0062
   -128.00    0.6347    1.0343
   -127.00    0.6238    1.0621
   -126.00    0.6122    1.0896
   -125.00    0.5999    1.1168
   -124.00    0.5868    1.1437
   -123.00    0.5731    1.1701
   -122.00    0.5587    1.1962
   -121.00    0.5436    1.2218
   -120.00    0.5280    1.2470
   -119.00    0.5118    1.2716
   -118.00    0.4950    1.2958
   -117.00    0.4776    1.3193
   -116.00    0.4598    1.3423
   -115.00    0.4415    1.3646
   -114.00    0.4227    1.3863
   -113.00    0.4034    1.4073
   -112.00    0.3838    1.4276
   -111.00    0.3638    1.4472
   -110.00    0.3434    1.4661
   -109.00    0.3227    1.4841
   -108.00    0.3016    1.5014
   -107.00    0.2803    1.5179
   -106.00    0.2588    1.5335
   -105.00    0.2370    1.5483
   -104.00    0.2150    1.5622
   -103.00    0.1926    1.5753
   -102.00    0.1703    1.5874
   -101.00    0.1478    1.5986
   -100.00    0.1253    1.6089
    -99.00    0.1026    1.6183
    -98.00    0.0799    1.6266
    -97.00    0.0572    1.6341
    -96.00    0.0345    1.6405
    -95.00    0.0117    1.6460
    -94.00   -0.0110    1.6505
    -93.00   -0.0336    1.6540
    -92.00   -0.0561    1.6565
    -91.00   -0.0786    1.6580
    -90.00   -0.1009    1.6585
    -89.00   -0.1230    1.6580
    -88.00   -0.1450    1.6565
    -87.00   -0.1668    1.6540
    -86.00   -0.1884    1.6505
    -85.00   -0.2097    1.6460
    -84.00   -0.2308    1.6405
    -83.00   -0.2516    1.6341
    -82.00   -0.2722    1.6266
    -81.00   -0.2924    1.6182
    -80.00   -0.3123    1.6089
    -79.00   -0.3318    1.5986
    -78.00   -0.3510    1.5874
    -77.00   -0.3698    1.5753
    -76.00   -0.3882    1.5622
    -75.00   -0.4061    1.5483
    -74.00   -0.4237    1.5335
    -73.00   -0.4407    1.5179
    -72.00   -0.4574    1.5014
    -71.00   -0.4735    1.4841
    -70.00   -0.4891    1.4660
    -69.00   -0.5042    1.4472
    -68.00   -0.5188    1.4276
    -67.00   -0.5329    1.4073
    -66.00   -0.5464    1.3863
    -65.00   -0.5593    1.3646
    -64.00   -0.5716    1.3422
    -63.00   -0.5834    1.3193
    -62.00   -0.5945    1.2957
    -61.00   -0.6051    1.2716
    -60.00   -0.6150    1.2470
    -59.00   -0.6242    1.2218
    -58.00   -0.6328    1.1962
    -57.00   -0.6408    1.1701
    -56.00   -0.6481    1.1436
    -55.00   -0.6547    1.1168
    -54.00   -0.6606    1.0896
    -53.00   -0.6658    1.0620
    -52.00   -0.6703    1.0342
    -51.00   -0.6741    1.0062
    -50.00   -0.6772    0.9779
    -49.00   -0.6796    0.9494
    -48.00   -0.6813    0.9208
    -47.00   -0.6822    0.8921
    -46.00   -0.6824    0.8634
    -45.00   -0.6819    0.8345
    -44.00   -0.6806    0.8057
    -43.00   -0.6786    0.7769
    -42.00   -0.6758    0.7482
    -41.00   -0.6723    0.7195
    -40.00   -0.6680    0.6910
    -39.00   -0.6631    0.6627
    -38.00   -0.6573    0.6346
    -37.00   -0.6509    0.6067
    -36.00   -0.6437    0.5791
    -35.00   -0.6357    0.5517
    -34.00   -0.6271    0.5248
    -33.00   -0.6177    0.4981
    -32.00   -0.6077    0.4719
    -31.00   -0.5969    0.4462
    -30.00   -0.5855    0.4208
    -29.00   -0.5734    0.3960
    -28.00   -0.5607    0.3717
    -27.00   -0.5474    0.3480
    -26.00   -0.5336    0.3248
    -25.00   -0.5192    0.3022
    -24.00   -0.5044    0.2802
    -23.00   -0.4893    0.2589
    -22.00   -0.4741    0.2383
    -21.00   -0.4589    0.2183
    -20.00   -0.4441    0.1989
    -19.00   -0.4304    0.1802
    -18.00   -0.4187    0.1621
    -17.00   -0.4110    0.1445
    -16.00   -0.4105    0.1272
    -15.00   -0.4241    0.1097
    -14.00   -0.4648    0.0914
    -13.00   -0.5561    0.0711
    -12.00   -0.7204    0.0482
    -11.00   -0.9065    0.0270
    -10.00   -0.9620    0.0128
     -9.50   -0.9099    0.0125
     -9.00   -0.8573    0.0122
     -8.50   -0.8052    0.0117
     -8.00   -0.7525    0.0112
     -7.50   -0.6975    0.0109
     -7.00   -0.6432    0.0105
     -6.50   -0.5894    0.0099
     -6.00   -0.5335    0.0096
     -5.50   -0.4756    0.0095
     -5.00   -0.4174    0.0094
     -4.50   -0.3592    0.0093
     -4.00   -0.3008    0.0093
     -3.50   -0.2423    0.0092
     -3.00   -0.1837    0.0092
     -2.50   -0.1251    0.0092
     -2.00   -0.0664    0.0091
     -1.50   -0.0077    0.0091
     -1.00    0.0510    0.0091
     -0.50    0.1097    0.0092
      0.00    0.1683    0.0092
      0.50    0.2270    0.0092
      1.00    0.2855    0.0093
      1.50    0.3440    0.0093
      2.00    0.4023    0.0094
      2.50    0.4605    0.0095
      3.00    0.5186    0.0095
      3.50    0.5765    0.0096
      4.00    0.6343    0.0097
      4.50    0.6918    0.0099
      5.00    0.7490    0.0100
      5.50    0.8060    0.0101
      6.00    0.8627    0.0103
      6.50    0.9190    0.0105
      7.00    0.9749    0.0106
      7.50    1.0249    0.0112
      8.00    1.0732    0.0119
      8.50    1.1197    0.0126
      9.00    1.1674    0.0131
      9.50    1.2113    0.0138
     10.50    1.2881    0.0149
     11.00    1.3225    0.0157
     11.50    1.3557    0.0166
     12.00    1.3855    0.0178
     12.50    1.4081    0.0196
     13.00    1.4270    0.0218
     13.50    1.4547    0.0235
     14.00    1.4810    0.0255
     14.50    1.5051    0.0277
     15.00    1.5258    0.0302
     15.50    1.5447    0.0330
     16.00    1.5625    0.0360
     16.50    1.5811    0.0391
     17.00    1.5956    0.0427
     17.50    1.6077    0.0468
     18.00    1.6195    0.0511
     18.50    1.6290    0.0556
     19.00    1.6304    0.0613
     19.50    1.6282    0.0677
     20.00    1.5706    0.1064
     21.00    1.5060    0.1297
     22.00    1.4411    0.1546
     23.00    1.3795    0.1808
     24.00    1.3232    0.2079
     25.00    1.2734    0.2357
     26.00    1.2304    0.2639
     27.00    1.1940    0.2924
     28.00    1.1638    0.3212
     29.00    1.1391    0.3502
     30.00    1.1191    0.3794
     31.00    1.1033    0.4087
     32.00    1.0911    0.4382
     33.00    1.0817    0.4679
     34.00    1.0747    0.4976
     35.00    1.0696    0.5275
     36.00    1.0661    0.5576
     37.00    1.0638    0.5877
     38.00    1.0624    0.6180
     39.00    1.0616    0.6483
     40.00    1.0612    0.6787
     41.00    1.0610    0.7092
     42.00    1.0609    0.7396
     43.00    1.0607    0.7701
     44.00    1.0602    0.8006
     45.00    1.0594    0.8310
     46.00    1.0581    0.8614
     47.00    1.0564    0.8916
     48.00    1.0540    0.9217
     49.00    1.0510    0.9517
     50.00    1.0473    0.9814
     51.00    1.0428    1.0110
     52.00    1.0375    1.0403
     53.00    1.0313    1.0693
     54.00    1.0243    1.0979
     55.00    1.0164    1.1263
     56.00    1.0075    1.1542
     57.00    0.9977    1.1818
     58.00    0.9870    1.2089
     59.00    0.9752    1.2355
     60.00    0.9625    1.2616
     61.00    0.9488    1.2872
     62.00    0.9341    1.3123
     63.00    0.9184    1.3367
     64.00    0.9017    1.3606
     65.00    0.8841    1.3837
     66.00    0.8654    1.4062
     67.00    0.8458    1.4280
     68.00    0.8253    1.4491
     69.00    0.8037    1.4695
     70.00    0.7813    1.4890
     71.00    0.7579    1.5078
     72.00    0.7337    1.5257
     73.00    0.7086    1.5428
     74.00    0.6826    1.5590
     75.00    0.6558    1.5744
     76.00    0.6282    1.5889
     77.00    0.5998    1.6024
     78.00    0.5707    1.6150
     79.00    0.5409    1.6267
     80.00    0.5104    1.6374
     81.00    0.4793    1.6471
     82.00    0.4475    1.6558
     83.00    0.4152    1.6636
     84.00    0.3823    1.6703
     85.00    0.3490    1.6760
     86.00    0.3152    1.6807
     87.00    0.2810    1.6844
     88.00    0.2464    1.6871
     89.00    0.2114    1.6887
     90.00    0.1762    1.6893
     91.00    0.1408    1.6888
     92.00    0.1051    1.6873
     93.00    0.0693    1.6848
     94.00    0.0334    1.6813
     95.00   -0.0025    1.6767
     96.00   -0.0385    1.6711
     97.00   -0.0744    1.6645
     98.00   -0.1102    1.6569
     99.00   -0.1459    1.6484
    100.00   -0.1814    1.6388
    101.00   -0.2167    1.6282
    102.00   -0.2517    1.6167
    103.00   -0.2863    1.6043
    104.00   -0.3268    1.5909
    105.00   -0.3605    1.5767
    106.00   -0.3937    1.5615
    107.00   -0.4264    1.5454
    108.00   -0.4586    1.5285
    109.00   -0.4901    1.5108
    110.00   -0.5210    1.4922
    111.00   -0.5512    1.4729
    112.00   -0.5806    1.4528
    113.00   -0.6092    1.4320
    114.00   -0.6371    1.4104
    115.00   -0.6640    1.3882
    116.00   -0.6901    1.3653
    117.00   -0.7152    1.3417
    118.00   -0.7393    1.3176
    119.00   -0.7624    1.2929
    120.00   -0.7844    1.2676
    121.00   -0.8054    1.2418
    122.00   -0.8253    1.2156
    123.00   -0.8440    1.1889
    124.00   -0.8615    1.1618
    125.00   -0.8779    1.1343
    126.00   -0.8930    1.1064
    127.00   -0.9069    1.0783
    128.00   -0.9196    1.0498
    129.00   -0.9309    1.0211
    130.00   -0.9410    0.9922
    131.00   -0.9498    0.9632
    132.00   -0.9573    0.9340
    133.00   -0.9634    0.9047
    134.00   -0.9682    0.8753
    135.00   -0.9717    0.8459
    136.00   -0.9739    0.8165
    137.00   -0.9747    0.7871
    138.00   -0.9742    0.7578
    139.00   -0.9724    0.7286
    140.00   -0.9692    0.6996
    141.00   -0.9648    0.6708
    142.00   -0.9590    0.6422
    143.00   -0.9520    0.6138
    144.00   -0.9437    0.5857
    145.00   -0.9342    0.5579
    146.00   -0.9235    0.5305
    147.00   -0.9116    0.5035
    148.00   -0.8986    0.4769
    149.00   -0.8845    0.4508
    150.00   -0.8693    0.4251
    151.00   -0.8531    0.4000
    152.00   -0.8359    0.3754
    153.00   -0.8179    0.3514
    154.00   -0.7991    0.3280
    155.00   -0.7796    0.3052
    156.00   -0.7595    0.2831
    157.00   -0.7391    0.2617
    158.00   -0.7186    0.2410
    159.00   -0.6982    0.2210
    160.00   -0.6785    0.2018
    161.00   -0.6602    0.1834
    162.00   -0.6442    0.1658
    163.00   -0.6322    0.1490
    164.00   -0.6265    0.1331
    165.00   -0.6309    0.1181
    166.00   -0.6507    0.1039
    167.00   -0.6917    0.0906
    168.00   -0.7555    0.0783
    169.00   -0.8273    0.0669
    170.00   -0.8704    0.0564
    171.00   -0.8539    0.0469
    172.00   -0.7864    0.0384
    173.00   -0.6968    0.0308
    174.00   -0.6033    0.0243
    175.00   -0.5097    0.0187
    176.00   -0.4161    0.0141
    177.00   -0.3225    0.0106
    178.00   -0.2289    0.0080
    179.00   -0.1353    0.0065
    180.00   -0.0418    0.0060
    180.00   -0.0418    0.0060
