AeroDyn airfoil file Created with QBlade v0.91b 32-Bit on 03.06.2016 at 14:42:38 Compatible with AeroDyn v13.0.
Polar "T1_Re0.300_M0.00_N9.0 360 M" on Foil "T1_Re0.300_M0.00_N9.0" :: generated by QBlade
1              Number of airfoil tables in this file
0              Table ID parameter
17.00          Stall angle (deg)
0              No longer used, enter zero
0              No longer used, enter zero
0              No longer used, enter zero
-1.29          Angle of attack for zero Cn for linear Cn curve (deg)
6.32879        Cn slope for zero lift for linear Cn curve (1/rad)
-0.7965        Cn at stall value for positive angle of attack for linear Cn curve
-0.9163        Cn at stall value for negative angle of attack for linear Cn curve
-1.00          Angle of attack for minimum CD (deg)
0.0153         Minimum CD value
   -180.00   -0.0376    0.0060
   -179.00    0.0487    0.0065
   -178.00    0.1294    0.0080
   -177.00    0.1976    0.0106
   -176.00    0.2475    0.0141
   -175.00    0.2789    0.0187
   -174.00    0.2966    0.0242
   -173.00    0.3076    0.0308
   -172.00    0.3169    0.0383
   -171.00    0.3273    0.0468
   -170.00    0.3398    0.0562
   -169.00    0.3543    0.0666
   -168.00    0.3706    0.0780
   -167.00    0.3882    0.0903
   -166.00    0.4068    0.1034
   -165.00    0.4259    0.1175
   -164.00    0.4453    0.1324
   -163.00    0.4647    0.1482
   -162.00    0.4840    0.1649
   -161.00    0.5030    0.1823
   -160.00    0.5215    0.2005
   -159.00    0.5395    0.2196
   -158.00    0.5568    0.2393
   -157.00    0.5735    0.2598
   -156.00    0.5894    0.2810
   -155.00    0.6046    0.3028
   -154.00    0.6189    0.3253
   -153.00    0.6323    0.3484
   -152.00    0.6449    0.3721
   -151.00    0.6565    0.3964
   -150.00    0.6672    0.4211
   -149.00    0.6769    0.4464
   -148.00    0.6856    0.4722
   -147.00    0.6934    0.4984
   -146.00    0.7002    0.5250
   -145.00    0.7060    0.5519
   -144.00    0.7108    0.5792
   -143.00    0.7147    0.6068
   -142.00    0.7175    0.6347
   -141.00    0.7193    0.6628
   -140.00    0.7202    0.6912
   -139.00    0.7200    0.7196
   -138.00    0.7189    0.7483
   -137.00    0.7168    0.7770
   -136.00    0.7138    0.8058
   -135.00    0.7098    0.8346
   -134.00    0.7049    0.8634
   -133.00    0.6991    0.8922
   -132.00    0.6924    0.9209
   -131.00    0.6848    0.9495
   -130.00    0.6763    0.9779
   -129.00    0.6670    1.0062
   -128.00    0.6568    1.0343
   -127.00    0.6459    1.0621
   -126.00    0.6341    1.0896
   -125.00    0.6216    1.1168
   -124.00    0.6083    1.1437
   -123.00    0.5943    1.1701
   -122.00    0.5796    1.1962
   -121.00    0.5643    1.2218
   -120.00    0.5482    1.2470
   -119.00    0.5316    1.2716
   -118.00    0.5143    1.2958
   -117.00    0.4965    1.3193
   -116.00    0.4781    1.3423
   -115.00    0.4592    1.3646
   -114.00    0.4398    1.3863
   -113.00    0.4199    1.4073
   -112.00    0.3988    1.4276
   -111.00    0.3781    1.4472
   -110.00    0.3570    1.4661
   -109.00    0.3355    1.4841
   -108.00    0.3137    1.5014
   -107.00    0.2916    1.5179
   -106.00    0.2692    1.5335
   -105.00    0.2466    1.5483
   -104.00    0.2237    1.5622
   -103.00    0.2006    1.5753
   -102.00    0.1774    1.5874
   -101.00    0.1540    1.5986
   -100.00    0.1305    1.6089
    -99.00    0.1068    1.6183
    -98.00    0.0832    1.6266
    -97.00    0.0594    1.6341
    -96.00    0.0357    1.6405
    -95.00    0.0120    1.6460
    -94.00   -0.0117    1.6505
    -93.00   -0.0353    1.6540
    -92.00   -0.0589    1.6565
    -91.00   -0.0823    1.6580
    -90.00   -0.1056    1.6585
    -89.00   -0.1287    1.6580
    -88.00   -0.1517    1.6565
    -87.00   -0.1745    1.6540
    -86.00   -0.1970    1.6505
    -85.00   -0.2193    1.6460
    -84.00   -0.2413    1.6405
    -83.00   -0.2630    1.6341
    -82.00   -0.2844    1.6266
    -81.00   -0.3055    1.6182
    -80.00   -0.3262    1.6089
    -79.00   -0.3465    1.5986
    -78.00   -0.3664    1.5874
    -77.00   -0.3860    1.5753
    -76.00   -0.4051    1.5622
    -75.00   -0.4237    1.5483
    -74.00   -0.4419    1.5335
    -73.00   -0.4596    1.5179
    -72.00   -0.4768    1.5014
    -71.00   -0.4934    1.4841
    -70.00   -0.5096    1.4660
    -69.00   -0.5252    1.4472
    -68.00   -0.5402    1.4276
    -67.00   -0.5546    1.4073
    -66.00   -0.5685    1.3863
    -65.00   -0.5817    1.3646
    -64.00   -0.5943    1.3422
    -63.00   -0.6063    1.3193
    -62.00   -0.6177    1.2957
    -61.00   -0.6283    1.2716
    -60.00   -0.6384    1.2470
    -59.00   -0.6477    1.2218
    -58.00   -0.6564    1.1962
    -57.00   -0.6643    1.1701
    -56.00   -0.6716    1.1436
    -55.00   -0.6781    1.1168
    -54.00   -0.6840    1.0895
    -53.00   -0.6891    1.0620
    -52.00   -0.6934    1.0342
    -51.00   -0.6970    1.0062
    -50.00   -0.6999    0.9779
    -49.00   -0.7020    0.9494
    -48.00   -0.7034    0.9208
    -47.00   -0.7040    0.8921
    -46.00   -0.7039    0.8634
    -45.00   -0.7030    0.8345
    -44.00   -0.7013    0.8057
    -43.00   -0.6989    0.7769
    -42.00   -0.6957    0.7482
    -41.00   -0.6917    0.7195
    -40.00   -0.6870    0.6910
    -39.00   -0.6816    0.6627
    -38.00   -0.6754    0.6346
    -37.00   -0.6684    0.6067
    -36.00   -0.6607    0.5790
    -35.00   -0.6522    0.5517
    -34.00   -0.6431    0.5247
    -33.00   -0.6332    0.4981
    -32.00   -0.6226    0.4719
    -31.00   -0.6113    0.4461
    -30.00   -0.5994    0.4208
    -29.00   -0.5868    0.3960
    -28.00   -0.5736    0.3717
    -27.00   -0.5598    0.3479
    -26.00   -0.5455    0.3247
    -25.00   -0.5306    0.3021
    -24.00   -0.5154    0.2801
    -23.00   -0.5000    0.2588
    -22.00   -0.4844    0.2381
    -21.00   -0.4690    0.2181
    -20.00   -0.4541    0.1987
    -19.00   -0.4406    0.1799
    -18.00   -0.4296    0.1616
    -17.00   -0.4232    0.1437
    -16.00   -0.4255    0.1260
    -15.00   -0.4446    0.1079
    -14.00   -0.4957    0.0885
    -13.00   -0.6032    0.0665
    -12.00   -0.7760    0.0425
    -11.00   -0.9289    0.0231
    -10.00   -0.8043    0.0253
     -9.50   -0.7787    0.0235
     -9.00   -0.7695    0.0211
     -8.50   -0.7485    0.0194
     -8.00   -0.7103    0.0184
     -7.50   -0.6630    0.0178
     -7.00   -0.6137    0.0174
     -6.50   -0.5631    0.0170
     -6.00   -0.5114    0.0167
     -5.50   -0.4589    0.0164
     -5.00   -0.4057    0.0162
     -4.50   -0.3520    0.0160
     -4.00   -0.2978    0.0158
     -3.50   -0.2432    0.0156
     -3.00   -0.1884    0.0155
     -2.50   -0.1334    0.0154
     -2.00   -0.0782    0.0154
     -1.50   -0.0229    0.0153
     -1.00    0.0324    0.0153
     -0.50    0.0878    0.0153
      0.00    0.1430    0.0154
      0.50    0.1982    0.0154
      1.00    0.2532    0.0155
      1.50    0.3080    0.0156
      2.00    0.3625    0.0157
      2.50    0.4167    0.0159
      3.00    0.4705    0.0161
      3.50    0.5238    0.0163
      4.00    0.5764    0.0166
      4.50    0.6284    0.0168
      5.00    0.6795    0.0171
      5.50    0.7295    0.0175
      6.00    0.7783    0.0179
      6.50    0.8253    0.0183
      7.00    0.8701    0.0189
      7.50    0.9102    0.0194
      8.00    0.9468    0.0201
      8.50    0.9837    0.0210
      9.00    1.0192    0.0221
      9.50    1.0530    0.0234
     10.00    1.0843    0.0249
     10.50    1.1061    0.0272
     11.00    1.1097    0.0310
     11.50    1.1115    0.0352
     12.00    1.1237    0.0388
     12.50    1.1333    0.0428
     13.00    1.1325    0.0478
     13.50    1.1481    0.0517
     14.00    1.1622    0.0558
     14.50    1.1738    0.0603
     15.00    1.1836    0.0651
     15.50    1.1933    0.0700
     16.00    1.2015    0.0752
     16.50    1.2085    0.0809
     17.00    1.2108    0.0876
     17.50    1.2072    0.0954
     18.00    1.1973    0.1044
     18.50    1.1793    0.1151
     19.00    1.1515    0.1283
     19.50    1.1022    0.1471
     20.00    1.0828    0.1478
     21.00    1.0477    0.1707
     22.00    1.0181    0.1944
     23.00    0.9940    0.2187
     24.00    0.9751    0.2434
     25.00    0.9609    0.2687
     26.00    0.9507    0.2943
     27.00    0.9440    0.3204
     28.00    0.9401    0.3468
     29.00    0.9387    0.3736
     30.00    0.9392    0.4008
     31.00    0.9412    0.4282
     32.00    0.9444    0.4560
     33.00    0.9485    0.4841
     34.00    0.9533    0.5125
     35.00    0.9584    0.5412
     36.00    0.9638    0.5701
     37.00    0.9693    0.5992
     38.00    0.9746    0.6285
     39.00    0.9798    0.6580
     40.00    0.9846    0.6877
     41.00    0.9891    0.7175
     42.00    0.9930    0.7473
     43.00    0.9964    0.7773
     44.00    0.9991    0.8072
     45.00    1.0012    0.8372
     46.00    1.0025    0.8671
     47.00    1.0030    0.8969
     48.00    1.0027    0.9267
     49.00    1.0016    0.9563
     50.00    0.9996    0.9858
     51.00    0.9966    1.0150
     52.00    0.9927    1.0441
     53.00    0.9879    1.0728
     54.00    0.9821    1.1013
     55.00    0.9754    1.1294
     56.00    0.9676    1.1572
     57.00    0.9588    1.1846
     58.00    0.9490    1.2115
     59.00    0.9382    1.2380
     60.00    0.9264    1.2640
     61.00    0.9136    1.2894
     62.00    0.8998    1.3144
     63.00    0.8850    1.3387
     64.00    0.8691    1.3624
     65.00    0.8523    1.3855
     66.00    0.8345    1.4079
     67.00    0.8157    1.4296
     68.00    0.7960    1.4506
     69.00    0.7753    1.4709
     70.00    0.7537    1.4904
     71.00    0.7312    1.5090
     72.00    0.7078    1.5269
     73.00    0.6836    1.5439
     74.00    0.6585    1.5601
     75.00    0.6326    1.5754
     76.00    0.6060    1.5898
     77.00    0.5785    1.6033
     78.00    0.5504    1.6159
     79.00    0.5215    1.6275
     80.00    0.4920    1.6381
     81.00    0.4618    1.6478
     82.00    0.4310    1.6565
     83.00    0.3997    1.6642
     84.00    0.3679    1.6709
     85.00    0.3355    1.6766
     86.00    0.3028    1.6813
     87.00    0.2696    1.6850
     88.00    0.2360    1.6876
     89.00    0.2021    1.6892
     90.00    0.1680    1.6898
     91.00    0.1336    1.6893
     92.00    0.0990    1.6878
     93.00    0.0642    1.6852
     94.00    0.0294    1.6817
     95.00   -0.0055    1.6771
     96.00   -0.0405    1.6715
     97.00   -0.0754    1.6649
     98.00   -0.1102    1.6573
     99.00   -0.1449    1.6487
    100.00   -0.1794    1.6391
    101.00   -0.2137    1.6285
    102.00   -0.2477    1.6170
    103.00   -0.2814    1.6046
    104.00   -0.3147    1.5912
    105.00   -0.3477    1.5769
    106.00   -0.3801    1.5617
    107.00   -0.4121    1.5456
    108.00   -0.4435    1.5287
    109.00   -0.4744    1.5110
    110.00   -0.5046    1.4924
    111.00   -0.5380    1.4731
    112.00   -0.5668    1.4530
    113.00   -0.5948    1.4321
    114.00   -0.6220    1.4105
    115.00   -0.6484    1.3883
    116.00   -0.6739    1.3654
    117.00   -0.6984    1.3418
    118.00   -0.7221    1.3177
    119.00   -0.7447    1.2930
    120.00   -0.7664    1.2677
    121.00   -0.7870    1.2419
    122.00   -0.8065    1.2157
    123.00   -0.8249    1.1890
    124.00   -0.8422    1.1618
    125.00   -0.8584    1.1343
    126.00   -0.8733    1.1065
    127.00   -0.8871    1.0783
    128.00   -0.8996    1.0499
    129.00   -0.9109    1.0212
    130.00   -0.9210    0.9923
    131.00   -0.9298    0.9632
    132.00   -0.9373    0.9340
    133.00   -0.9435    0.9047
    134.00   -0.9485    0.8753
    135.00   -0.9521    0.8459
    136.00   -0.9545    0.8165
    137.00   -0.9555    0.7871
    138.00   -0.9553    0.7579
    139.00   -0.9537    0.7287
    140.00   -0.9509    0.6996
    141.00   -0.9468    0.6708
    142.00   -0.9414    0.6422
    143.00   -0.9348    0.6138
    144.00   -0.9270    0.5857
    145.00   -0.9179    0.5580
    146.00   -0.9076    0.5305
    147.00   -0.8962    0.5035
    148.00   -0.8836    0.4769
    149.00   -0.8699    0.4508
    150.00   -0.8551    0.4251
    151.00   -0.8393    0.4000
    152.00   -0.8224    0.3754
    153.00   -0.8047    0.3514
    154.00   -0.7860    0.3280
    155.00   -0.7664    0.3052
    156.00   -0.7461    0.2831
    157.00   -0.7251    0.2617
    158.00   -0.7034    0.2410
    159.00   -0.6813    0.2210
    160.00   -0.6587    0.2018
    161.00   -0.6359    0.1834
    162.00   -0.6129    0.1658
    163.00   -0.5901    0.1490
    164.00   -0.5677    0.1331
    165.00   -0.5461    0.1181
    166.00   -0.5256    0.1039
    167.00   -0.5068    0.0906
    168.00   -0.4904    0.0783
    169.00   -0.4771    0.0669
    170.00   -0.4675    0.0564
    171.00   -0.4619    0.0469
    172.00   -0.4589    0.0384
    173.00   -0.4550    0.0308
    174.00   -0.4428    0.0243
    175.00   -0.4140    0.0187
    176.00   -0.3635    0.0141
    177.00   -0.2937    0.0106
    178.00   -0.2119    0.0080
    179.00   -0.1253    0.0065
    180.00   -0.0376    0.0060
    180.00   -0.0376    0.0060
