AeroDyn airfoil file Created with QBlade v0.91b 32-Bit on 03.06.2016 at 14:37:46 Compatible with AeroDyn v13.0.
Polar "T1_Re3.600_M0.00_N9.0 360 M" on Foil "T1_Re3.600_M0.00_N9.0" :: generated by QBlade
1              Number of airfoil tables in this file
0              Table ID parameter
18.50          Stall angle (deg)
0              No longer used, enter zero
0              No longer used, enter zero
0              No longer used, enter zero
-1.47          Angle of attack for zero Cn for linear Cn curve (deg)
6.65148        Cn slope for zero lift for linear Cn curve (1/rad)
-0.8901        Cn at stall value for positive angle of attack for linear Cn curve
-0.9675        Cn at stall value for negative angle of attack for linear Cn curve
-1.50          Angle of attack for minimum CD (deg)
0.0083         Minimum CD value
   -180.00   -0.0437    0.0060
   -179.00    0.0490    0.0065
   -178.00    0.1417    0.0081
   -177.00    0.2343    0.0106
   -176.00    0.3270    0.0143
   -175.00    0.4197    0.0189
   -174.00    0.5123    0.0245
   -173.00    0.6050    0.0312
   -172.00    0.6940    0.0388
   -171.00    0.7592    0.0475
   -170.00    0.7667    0.0571
   -169.00    0.7094    0.0677
   -168.00    0.6268    0.0792
   -167.00    0.5586    0.0917
   -166.00    0.5164    0.1051
   -165.00    0.4959    0.1195
   -164.00    0.4900    0.1347
   -163.00    0.4932    0.1507
   -162.00    0.5019    0.1677
   -161.00    0.5138    0.1854
   -160.00    0.5275    0.2040
   -159.00    0.5421    0.2233
   -158.00    0.5571    0.2434
   -157.00    0.5720    0.2642
   -156.00    0.5867    0.2858
   -155.00    0.6008    0.3080
   -154.00    0.6143    0.3309
   -153.00    0.6270    0.3544
   -152.00    0.6390    0.3785
   -151.00    0.6501    0.4032
   -150.00    0.6603    0.4284
   -149.00    0.6696    0.4542
   -148.00    0.6780    0.4804
   -147.00    0.6853    0.5070
   -146.00    0.6917    0.5341
   -145.00    0.6972    0.5615
   -144.00    0.7016    0.5893
   -143.00    0.7051    0.6174
   -142.00    0.7075    0.6458
   -141.00    0.7090    0.6744
   -140.00    0.7095    0.7032
   -139.00    0.7091    0.7322
   -138.00    0.7076    0.7613
   -137.00    0.7053    0.7906
   -136.00    0.7020    0.8199
   -135.00    0.6977    0.8492
   -134.00    0.6926    0.8785
   -133.00    0.6865    0.9078
   -132.00    0.6796    0.9370
   -131.00    0.6718    0.9661
   -130.00    0.6632    0.9951
   -129.00    0.6537    1.0238
   -128.00    0.6435    1.0524
   -127.00    0.6324    1.0807
   -126.00    0.6207    1.1087
   -125.00    0.6081    1.1364
   -124.00    0.5949    1.1637
   -123.00    0.5809    1.1907
   -122.00    0.5663    1.2172
   -121.00    0.5511    1.2433
   -120.00    0.5352    1.2689
   -119.00    0.5187    1.2940
   -118.00    0.5017    1.3185
   -117.00    0.4841    1.3425
   -116.00    0.4660    1.3658
   -115.00    0.4474    1.3886
   -114.00    0.4283    1.4106
   -113.00    0.4088    1.4320
   -112.00    0.3889    1.4527
   -111.00    0.3686    1.4726
   -110.00    0.3480    1.4918
   -109.00    0.3270    1.5102
   -108.00    0.3057    1.5278
   -107.00    0.2841    1.5446
   -106.00    0.2622    1.5605
   -105.00    0.2401    1.5755
   -104.00    0.2178    1.5897
   -103.00    0.1951    1.6030
   -102.00    0.1725    1.6153
   -101.00    0.1497    1.6267
   -100.00    0.1269    1.6372
    -99.00    0.1039    1.6467
    -98.00    0.0809    1.6553
    -97.00    0.0579    1.6628
    -96.00    0.0349    1.6694
    -95.00    0.0118    1.6750
    -94.00   -0.0111    1.6795
    -93.00   -0.0341    1.6831
    -92.00   -0.0569    1.6856
    -91.00   -0.0796    1.6872
    -90.00   -0.1022    1.6877
    -89.00   -0.1247    1.6872
    -88.00   -0.1469    1.6856
    -87.00   -0.1690    1.6831
    -86.00   -0.1909    1.6795
    -85.00   -0.2125    1.6750
    -84.00   -0.2339    1.6694
    -83.00   -0.2550    1.6628
    -82.00   -0.2758    1.6552
    -81.00   -0.2963    1.6467
    -80.00   -0.3164    1.6372
    -79.00   -0.3363    1.6267
    -78.00   -0.3557    1.6153
    -77.00   -0.3747    1.6029
    -76.00   -0.3934    1.5897
    -75.00   -0.4116    1.5755
    -74.00   -0.4294    1.5604
    -73.00   -0.4467    1.5445
    -72.00   -0.4636    1.5278
    -71.00   -0.4799    1.5102
    -70.00   -0.4958    1.4918
    -69.00   -0.5111    1.4726
    -68.00   -0.5259    1.4526
    -67.00   -0.5402    1.4320
    -66.00   -0.5539    1.4106
    -65.00   -0.5670    1.3885
    -64.00   -0.5796    1.3657
    -63.00   -0.5915    1.3424
    -62.00   -0.6029    1.3184
    -61.00   -0.6136    1.2939
    -60.00   -0.6237    1.2688
    -59.00   -0.6331    1.2432
    -58.00   -0.6419    1.2171
    -57.00   -0.6500    1.1905
    -56.00   -0.6574    1.1636
    -55.00   -0.6642    1.1362
    -54.00   -0.6703    1.1085
    -53.00   -0.6756    1.0805
    -52.00   -0.6803    1.0522
    -51.00   -0.6842    1.0236
    -50.00   -0.6875    0.9948
    -49.00   -0.6900    0.9659
    -48.00   -0.6918    0.9368
    -47.00   -0.6928    0.9075
    -46.00   -0.6931    0.8782
    -45.00   -0.6927    0.8489
    -44.00   -0.6916    0.8195
    -43.00   -0.6897    0.7902
    -42.00   -0.6870    0.7609
    -41.00   -0.6837    0.7317
    -40.00   -0.6796    0.7027
    -39.00   -0.6748    0.6738
    -38.00   -0.6692    0.6452
    -37.00   -0.6630    0.6167
    -36.00   -0.6560    0.5886
    -35.00   -0.6484    0.5607
    -34.00   -0.6401    0.5332
    -33.00   -0.6312    0.5060
    -32.00   -0.6216    0.4793
    -31.00   -0.6115    0.4529
    -30.00   -0.6008    0.4271
    -29.00   -0.5897    0.4017
    -28.00   -0.5782    0.3768
    -27.00   -0.5665    0.3524
    -26.00   -0.5546    0.3285
    -25.00   -0.5428    0.3052
    -24.00   -0.5313    0.2825
    -23.00   -0.5206    0.2603
    -22.00   -0.5113    0.2386
    -21.00   -0.5043    0.2174
    -20.00   -0.5010    0.1966
    -19.00   -0.5036    0.1761
    -18.00   -0.5155    0.1556
    -17.00   -0.5421    0.1347
    -16.00   -0.5916    0.1131
    -15.00   -0.6738    0.0903
    -14.00   -0.7940    0.0664
    -13.00   -0.9341    0.0436
    -12.00   -1.0383    0.0260
    -11.00   -1.0512    0.0168
    -10.00   -0.9800    0.0138
     -9.50   -0.9003    0.0127
     -9.00   -0.8529    0.0114
     -8.50   -0.7983    0.0111
     -8.00   -0.7432    0.0108
     -7.50   -0.6878    0.0105
     -7.00   -0.6320    0.0103
     -6.50   -0.5759    0.0100
     -6.00   -0.5202    0.0096
     -5.50   -0.4633    0.0094
     -5.00   -0.4065    0.0092
     -4.50   -0.3496    0.0089
     -4.00   -0.2928    0.0086
     -3.50   -0.2352    0.0084
     -3.00   -0.1772    0.0084
     -2.50   -0.1191    0.0083
     -2.00   -0.0610    0.0083
     -1.50   -0.0030    0.0083
     -1.00    0.0551    0.0083
     -0.50    0.1132    0.0083
      0.00    0.1712    0.0084
      0.50    0.2293    0.0084
      1.00    0.2872    0.0084
      1.50    0.3451    0.0085
      2.00    0.4029    0.0085
      2.50    0.4606    0.0086
      3.00    0.5183    0.0087
      3.50    0.5758    0.0088
      4.00    0.6331    0.0089
      4.50    0.6904    0.0090
      5.00    0.7460    0.0093
      5.50    0.7995    0.0098
      6.00    0.8535    0.0102
      6.50    0.9078    0.0106
      7.00    0.9617    0.0110
      7.50    1.0141    0.0115
      8.00    1.0675    0.0118
      8.50    1.1205    0.0122
      9.00    1.1727    0.0126
      9.50    1.2182    0.0136
     10.00    1.2613    0.0147
     10.50    1.3075    0.0153
     11.50    1.3927    0.0169
     12.00    1.4267    0.0178
     12.50    1.4532    0.0188
     13.00    1.4810    0.0200
     13.50    1.5089    0.0213
     14.00    1.5366    0.0228
     14.50    1.5640    0.0244
     15.00    1.5900    0.0262
     15.50    1.6147    0.0282
     16.00    1.6369    0.0306
     16.50    1.6573    0.0332
     17.00    1.6752    0.0362
     17.50    1.6893    0.0396
     18.00    1.7004    0.0436
     18.50    1.7061    0.0485
     19.00    1.6848    0.0799
     20.00    1.6335    0.1004
     21.00    1.5748    0.1234
     22.00    1.5135    0.1483
     23.00    1.4533    0.1747
     24.00    1.3967    0.2022
     25.00    1.3453    0.2306
     26.00    1.2998    0.2596
     27.00    1.2605    0.2890
     28.00    1.2271    0.3187
     29.00    1.1992    0.3486
     30.00    1.1762    0.3788
     31.00    1.1575    0.4090
     32.00    1.1424    0.4395
     33.00    1.1305    0.4700
     34.00    1.1213    0.5007
     35.00    1.1141    0.5315
     36.00    1.1087    0.5623
     37.00    1.1047    0.5933
     38.00    1.1017    0.6244
     39.00    1.0995    0.6555
     40.00    1.0979    0.6867
     41.00    1.0966    0.7179
     42.00    1.0954    0.7491
     43.00    1.0942    0.7804
     44.00    1.0929    0.8115
     45.00    1.0913    0.8427
     46.00    1.0894    0.8737
     47.00    1.0869    0.9046
     48.00    1.0839    0.9354
     49.00    1.0803    0.9660
     50.00    1.0760    0.9964
     51.00    1.0710    1.0265
     52.00    1.0651    1.0564
     53.00    1.0585    1.0860
     54.00    1.0510    1.1153
     55.00    1.0425    1.1442
     56.00    1.0332    1.1727
     57.00    1.0229    1.2008
     58.00    1.0117    1.2285
     59.00    0.9995    1.2556
     60.00    0.9863    1.2823
     61.00    0.9721    1.3084
     62.00    0.9569    1.3339
     63.00    0.9407    1.3588
     64.00    0.9235    1.3831
     65.00    0.9053    1.4067
     66.00    0.8862    1.4297
     67.00    0.8660    1.4519
     68.00    0.8449    1.4734
     69.00    0.8228    1.4941
     70.00    0.7998    1.5140
     71.00    0.7759    1.5331
     72.00    0.7510    1.5514
     73.00    0.7253    1.5688
     74.00    0.6987    1.5854
     75.00    0.6713    1.6010
     76.00    0.6431    1.6158
     77.00    0.6141    1.6296
     78.00    0.5843    1.6424
     79.00    0.5538    1.6543
     80.00    0.5226    1.6652
     81.00    0.4908    1.6751
     82.00    0.4584    1.6840
     83.00    0.4253    1.6919
     84.00    0.3918    1.6988
     85.00    0.3577    1.7046
     86.00    0.3232    1.7094
     87.00    0.2882    1.7132
     88.00    0.2529    1.7159
     89.00    0.2172    1.7176
     90.00    0.1812    1.7182
     91.00    0.1450    1.7177
     92.00    0.1086    1.7162
     93.00    0.0721    1.7137
     94.00    0.0354    1.7101
     95.00   -0.0013    1.7055
     96.00   -0.0380    1.6998
     97.00   -0.0747    1.6931
     98.00   -0.1112    1.6854
     99.00   -0.1477    1.6766
    100.00   -0.1839    1.6669
    101.00   -0.2199    1.6562
    102.00   -0.2556    1.6445
    103.00   -0.2910    1.6319
    104.00   -0.3332    1.6183
    105.00   -0.3676    1.6037
    106.00   -0.4015    1.5883
    107.00   -0.4348    1.5720
    108.00   -0.4676    1.5548
    109.00   -0.4998    1.5368
    110.00   -0.5312    1.5179
    111.00   -0.5620    1.4982
    112.00   -0.5920    1.4778
    113.00   -0.6213    1.4566
    114.00   -0.6496    1.4347
    115.00   -0.6771    1.4120
    116.00   -0.7037    1.3888
    117.00   -0.7293    1.3648
    118.00   -0.7539    1.3403
    119.00   -0.7774    1.3151
    120.00   -0.7999    1.2894
    121.00   -0.8213    1.2632
    122.00   -0.8415    1.2365
    123.00   -0.8606    1.2094
    124.00   -0.8785    1.1818
    125.00   -0.8952    1.1538
    126.00   -0.9106    1.1255
    127.00   -0.9248    1.0968
    128.00   -0.9377    1.0679
    129.00   -0.9493    1.0387
    130.00   -0.9596    1.0093
    131.00   -0.9685    0.9798
    132.00   -0.9761    0.9501
    133.00   -0.9824    0.9202
    134.00   -0.9873    0.8904
    135.00   -0.9909    0.8604
    136.00   -0.9931    0.8305
    137.00   -0.9939    0.8007
    138.00   -0.9934    0.7709
    139.00   -0.9915    0.7412
    140.00   -0.9883    0.7117
    141.00   -0.9838    0.6823
    142.00   -0.9779    0.6532
    143.00   -0.9708    0.6243
    144.00   -0.9623    0.5958
    145.00   -0.9527    0.5675
    146.00   -0.9417    0.5396
    147.00   -0.9296    0.5122
    148.00   -0.9163    0.4851
    149.00   -0.9019    0.4585
    150.00   -0.8864    0.4324
    151.00   -0.8699    0.4068
    152.00   -0.8524    0.3818
    153.00   -0.8340    0.3574
    154.00   -0.8148    0.3336
    155.00   -0.7949    0.3104
    156.00   -0.7744    0.2879
    157.00   -0.7536    0.2661
    158.00   -0.7326    0.2451
    159.00   -0.7118    0.2248
    160.00   -0.6917    0.2052
    161.00   -0.6730    0.1865
    162.00   -0.6566    0.1686
    163.00   -0.6442    0.1515
    164.00   -0.6382    0.1353
    165.00   -0.6423    0.1200
    166.00   -0.6618    0.1056
    167.00   -0.7023    0.0921
    168.00   -0.7645    0.0795
    169.00   -0.8329    0.0679
    170.00   -0.8710    0.0573
    171.00   -0.8504    0.0476
    172.00   -0.7815    0.0389
    173.00   -0.6923    0.0312
    174.00   -0.5997    0.0246
    175.00   -0.5070    0.0189
    176.00   -0.4143    0.0143
    177.00   -0.3217    0.0107
    178.00   -0.2290    0.0081
    179.00   -0.1363    0.0065
    180.00   -0.0437    0.0060
    180.00   -0.0437    0.0060
