AeroDyn airfoil file Created with QBlade v0.91b 32-Bit on 03.06.2016 at 14:37:46 Compatible with AeroDyn v13.0.
Polar "T1_Re2.600_M0.00_N9.0 360 M" on Foil "T1_Re2.600_M0.00_N9.0" :: generated by QBlade
1              Number of airfoil tables in this file
0              Table ID parameter
19.00          Stall angle (deg)
0              No longer used, enter zero
0              No longer used, enter zero
0              No longer used, enter zero
-1.46          Angle of attack for zero Cn for linear Cn curve (deg)
6.63260        Cn slope for zero lift for linear Cn curve (1/rad)
1.1984         Cn at stall value for positive angle of attack for linear Cn curve
-0.8915        Cn at stall value for negative angle of attack for linear Cn curve
-1.50          Angle of attack for minimum CD (deg)
0.0088         Minimum CD value
   -180.00   -0.0433    0.0060
   -179.00    0.0491    0.0065
   -178.00    0.1414    0.0081
   -177.00    0.2338    0.0106
   -176.00    0.3261    0.0143
   -175.00    0.4185    0.0189
   -174.00    0.5104    0.0245
   -173.00    0.5952    0.0312
   -172.00    0.6530    0.0388
   -171.00    0.6609    0.0475
   -170.00    0.6210    0.0571
   -169.00    0.5635    0.0677
   -168.00    0.5154    0.0792
   -167.00    0.4853    0.0917
   -166.00    0.4712    0.1051
   -165.00    0.4686    0.1195
   -164.00    0.4736    0.1347
   -163.00    0.4834    0.1507
   -162.00    0.4961    0.1677
   -161.00    0.5105    0.1854
   -160.00    0.5258    0.2040
   -159.00    0.5415    0.2233
   -158.00    0.5572    0.2434
   -157.00    0.5726    0.2642
   -156.00    0.5875    0.2858
   -155.00    0.6018    0.3080
   -154.00    0.6155    0.3309
   -153.00    0.6283    0.3544
   -152.00    0.6404    0.3785
   -151.00    0.6516    0.4032
   -150.00    0.6618    0.4284
   -149.00    0.6712    0.4542
   -148.00    0.6795    0.4804
   -147.00    0.6870    0.5070
   -146.00    0.6934    0.5341
   -145.00    0.6988    0.5615
   -144.00    0.7033    0.5893
   -143.00    0.7068    0.6174
   -142.00    0.7093    0.6458
   -141.00    0.7108    0.6744
   -140.00    0.7113    0.7032
   -139.00    0.7109    0.7322
   -138.00    0.7094    0.7613
   -137.00    0.7071    0.7906
   -136.00    0.7038    0.8199
   -135.00    0.6996    0.8492
   -134.00    0.6944    0.8785
   -133.00    0.6884    0.9078
   -132.00    0.6814    0.9370
   -131.00    0.6737    0.9661
   -130.00    0.6650    0.9951
   -129.00    0.6556    1.0238
   -128.00    0.6453    1.0524
   -127.00    0.6343    1.0807
   -126.00    0.6224    1.1087
   -125.00    0.6099    1.1364
   -124.00    0.5966    1.1637
   -123.00    0.5827    1.1907
   -122.00    0.5680    1.2172
   -121.00    0.5527    1.2433
   -120.00    0.5368    1.2689
   -119.00    0.5203    1.2940
   -118.00    0.5032    1.3185
   -117.00    0.4856    1.3425
   -116.00    0.4675    1.3658
   -115.00    0.4488    1.3886
   -114.00    0.4297    1.4106
   -113.00    0.4102    1.4320
   -112.00    0.3902    1.4527
   -111.00    0.3698    1.4726
   -110.00    0.3491    1.4918
   -109.00    0.3281    1.5102
   -108.00    0.3067    1.5278
   -107.00    0.2850    1.5446
   -106.00    0.2631    1.5605
   -105.00    0.2406    1.5755
   -104.00    0.2183    1.5897
   -103.00    0.1957    1.6030
   -102.00    0.1730    1.6153
   -101.00    0.1502    1.6267
   -100.00    0.1273    1.6372
    -99.00    0.1042    1.6467
    -98.00    0.0812    1.6553
    -97.00    0.0581    1.6628
    -96.00    0.0350    1.6694
    -95.00    0.0119    1.6750
    -94.00   -0.0112    1.6795
    -93.00   -0.0342    1.6831
    -92.00   -0.0571    1.6856
    -91.00   -0.0799    1.6872
    -90.00   -0.1026    1.6877
    -89.00   -0.1251    1.6872
    -88.00   -0.1475    1.6856
    -87.00   -0.1696    1.6831
    -86.00   -0.1916    1.6795
    -85.00   -0.2133    1.6750
    -84.00   -0.2347    1.6694
    -83.00   -0.2559    1.6628
    -82.00   -0.2768    1.6552
    -81.00   -0.2973    1.6467
    -80.00   -0.3176    1.6372
    -79.00   -0.3374    1.6267
    -78.00   -0.3569    1.6153
    -77.00   -0.3760    1.6029
    -76.00   -0.3947    1.5897
    -75.00   -0.4130    1.5755
    -74.00   -0.4308    1.5604
    -73.00   -0.4482    1.5445
    -72.00   -0.4651    1.5278
    -71.00   -0.4815    1.5102
    -70.00   -0.4974    1.4918
    -69.00   -0.5128    1.4726
    -68.00   -0.5276    1.4526
    -67.00   -0.5419    1.4320
    -66.00   -0.5557    1.4106
    -65.00   -0.5688    1.3885
    -64.00   -0.5814    1.3657
    -63.00   -0.5934    1.3424
    -62.00   -0.6047    1.3184
    -61.00   -0.6155    1.2939
    -60.00   -0.6255    1.2688
    -59.00   -0.6350    1.2432
    -58.00   -0.6438    1.2171
    -57.00   -0.6519    1.1905
    -56.00   -0.6593    1.1636
    -55.00   -0.6661    1.1362
    -54.00   -0.6721    1.1085
    -53.00   -0.6775    1.0805
    -52.00   -0.6821    1.0522
    -51.00   -0.6861    1.0236
    -50.00   -0.6893    0.9948
    -49.00   -0.6918    0.9659
    -48.00   -0.6935    0.9368
    -47.00   -0.6946    0.9075
    -46.00   -0.6949    0.8782
    -45.00   -0.6944    0.8489
    -44.00   -0.6932    0.8195
    -43.00   -0.6913    0.7902
    -42.00   -0.6886    0.7609
    -41.00   -0.6852    0.7317
    -40.00   -0.6811    0.7027
    -39.00   -0.6762    0.6738
    -38.00   -0.6706    0.6452
    -37.00   -0.6643    0.6168
    -36.00   -0.6573    0.5886
    -35.00   -0.6496    0.5607
    -34.00   -0.6413    0.5332
    -33.00   -0.6322    0.5061
    -32.00   -0.6226    0.4793
    -31.00   -0.6124    0.4530
    -30.00   -0.6016    0.4271
    -29.00   -0.5903    0.4017
    -28.00   -0.5786    0.3768
    -27.00   -0.5666    0.3525
    -26.00   -0.5544    0.3287
    -25.00   -0.5422    0.3054
    -24.00   -0.5302    0.2827
    -23.00   -0.5187    0.2606
    -22.00   -0.5083    0.2391
    -21.00   -0.4996    0.2181
    -20.00   -0.4939    0.1975
    -19.00   -0.4926    0.1773
    -18.00   -0.4985    0.1573
    -17.00   -0.5157    0.1373
    -16.00   -0.5503    0.1168
    -15.00   -0.6107    0.0956
    -14.00   -0.7047    0.0735
    -13.00   -0.8279    0.0514
    -12.00   -0.9456    0.0323
    -11.00   -0.9991    0.0199
    -10.00   -0.9488    0.0139
     -9.50   -0.9018    0.0127
     -9.00   -0.8482    0.0124
     -8.50   -0.7939    0.0121
     -8.00   -0.7392    0.0118
     -7.50   -0.6844    0.0115
     -7.00   -0.6293    0.0112
     -6.50   -0.5750    0.0106
     -6.00   -0.5195    0.0102
     -5.50   -0.4630    0.0100
     -5.00   -0.4066    0.0097
     -4.50   -0.3503    0.0093
     -4.00   -0.2937    0.0090
     -3.50   -0.2359    0.0089
     -3.00   -0.1781    0.0089
     -2.50   -0.1202    0.0089
     -2.00   -0.0623    0.0088
     -1.50   -0.0044    0.0088
     -1.00    0.0535    0.0088
     -0.50    0.1114    0.0088
      0.00    0.1693    0.0089
      0.50    0.2271    0.0089
      1.00    0.2849    0.0089
      1.50    0.3426    0.0090
      2.00    0.4002    0.0091
      2.50    0.4577    0.0091
      3.00    0.5151    0.0092
      3.50    0.5724    0.0093
      4.00    0.6295    0.0094
      4.50    0.6865    0.0095
      5.00    0.7432    0.0097
      5.50    0.7967    0.0102
      6.00    0.8490    0.0108
      6.50    0.9023    0.0112
      7.00    0.9562    0.0116
      7.50    1.0077    0.0122
      8.50    1.1105    0.0132
      9.00    1.1623    0.0136
      9.50    1.2128    0.0140
     10.00    1.2567    0.0150
     10.50    1.2980    0.0160
     11.00    1.3339    0.0173
     11.50    1.3540    0.0188
     12.00    1.3621    0.0211
     12.50    1.3743    0.0236
     13.00    1.3988    0.0255
     13.50    1.4240    0.0274
     14.00    1.4495    0.0294
     14.50    1.4747    0.0316
     15.00    1.5000    0.0338
     15.50    1.5247    0.0362
     16.00    1.5472    0.0389
     16.50    1.5676    0.0419
     17.00    1.5866    0.0452
     17.50    1.6047    0.0488
     18.00    1.6192    0.0529
     18.50    1.6283    0.0578
     19.00    1.6337    0.0635
     19.50    1.6329    0.0702
     20.00    1.5800    0.0850
     20.50    1.5327    0.1002
     21.00    1.4876    0.1162
     21.50    1.4385    0.1335
     22.00    1.3867    0.1525
     22.50    1.3338    0.1728
     23.00    1.2789    0.1951
     23.50    1.2208    0.2192
     24.00    1.2122    0.2240
     25.00    1.1576    0.2537
     26.00    1.1143    0.2833
     27.00    1.0807    0.3128
     28.00    1.0554    0.3422
     29.00    1.0368    0.3715
     30.00    1.0237    0.4008
     31.00    1.0150    0.4302
     32.00    1.0098    0.4597
     33.00    1.0073    0.4892
     34.00    1.0069    0.5189
     35.00    1.0080    0.5487
     36.00    1.0102    0.5787
     37.00    1.0133    0.6087
     38.00    1.0168    0.6389
     39.00    1.0205    0.6692
     40.00    1.0243    0.6997
     41.00    1.0280    0.7301
     42.00    1.0314    0.7607
     43.00    1.0344    0.7913
     44.00    1.0369    0.8218
     45.00    1.0388    0.8524
     46.00    1.0400    0.8829
     47.00    1.0405    0.9133
     48.00    1.0402    0.9436
     49.00    1.0391    0.9738
     50.00    1.0371    1.0038
     51.00    1.0342    1.0335
     52.00    1.0303    1.0631
     53.00    1.0255    1.0923
     54.00    1.0197    1.1213
     55.00    1.0128    1.1499
     56.00    1.0049    1.1781
     57.00    0.9960    1.2059
     58.00    0.9860    1.2333
     59.00    0.9750    1.2603
     60.00    0.9629    1.2867
     61.00    0.9498    1.3126
     62.00    0.9356    1.3379
     63.00    0.9203    1.3626
     64.00    0.9040    1.3867
     65.00    0.8866    1.4102
     66.00    0.8682    1.4330
     67.00    0.8488    1.4550
     68.00    0.8284    1.4764
     69.00    0.8069    1.4969
     70.00    0.7846    1.5167
     71.00    0.7612    1.5357
     72.00    0.7369    1.5539
     73.00    0.7117    1.5712
     74.00    0.6857    1.5876
     75.00    0.6587    1.6032
     76.00    0.6310    1.6178
     77.00    0.6024    1.6315
     78.00    0.5731    1.6443
     79.00    0.5430    1.6561
     80.00    0.5122    1.6669
     81.00    0.4808    1.6767
     82.00    0.4487    1.6856
     83.00    0.4161    1.6934
     84.00    0.3828    1.7002
     85.00    0.3491    1.7060
     86.00    0.3149    1.7107
     87.00    0.2803    1.7144
     88.00    0.2452    1.7171
     89.00    0.2099    1.7187
     90.00    0.1742    1.7192
     91.00    0.1383    1.7188
     92.00    0.1021    1.7172
     93.00    0.0659    1.7146
     94.00    0.0295    1.7110
     95.00   -0.0070    1.7063
     96.00   -0.0435    1.7006
     97.00   -0.0799    1.6939
     98.00   -0.1162    1.6861
     99.00   -0.1525    1.6773
    100.00   -0.1885    1.6676
    101.00   -0.2243    1.6568
    102.00   -0.2598    1.6451
    103.00   -0.2950    1.6324
    104.00   -0.3298    1.6188
    105.00   -0.3670    1.6043
    106.00   -0.4008    1.5888
    107.00   -0.4341    1.5725
    108.00   -0.4668    1.5553
    109.00   -0.4989    1.5372
    110.00   -0.5303    1.5183
    111.00   -0.5610    1.4986
    112.00   -0.5910    1.4782
    113.00   -0.6202    1.4570
    114.00   -0.6485    1.4350
    115.00   -0.6759    1.4124
    116.00   -0.7025    1.3891
    117.00   -0.7280    1.3651
    118.00   -0.7526    1.3405
    119.00   -0.7761    1.3154
    120.00   -0.7986    1.2897
    121.00   -0.8199    1.2634
    122.00   -0.8401    1.2367
    123.00   -0.8592    1.2096
    124.00   -0.8771    1.1820
    125.00   -0.8937    1.1540
    126.00   -0.9092    1.1257
    127.00   -0.9233    1.0970
    128.00   -0.9362    1.0681
    129.00   -0.9478    1.0389
    130.00   -0.9581    1.0095
    131.00   -0.9670    0.9799
    132.00   -0.9747    0.9502
    133.00   -0.9809    0.9204
    134.00   -0.9859    0.8905
    135.00   -0.9894    0.8605
    136.00   -0.9917    0.8306
    137.00   -0.9925    0.8007
    138.00   -0.9920    0.7709
    139.00   -0.9902    0.7413
    140.00   -0.9870    0.7117
    141.00   -0.9825    0.6824
    142.00   -0.9767    0.6533
    143.00   -0.9696    0.6244
    144.00   -0.9612    0.5958
    145.00   -0.9515    0.5676
    146.00   -0.9406    0.5397
    147.00   -0.9286    0.5122
    148.00   -0.9153    0.4851
    149.00   -0.9009    0.4585
    150.00   -0.8854    0.4324
    151.00   -0.8689    0.4069
    152.00   -0.8514    0.3819
    153.00   -0.8330    0.3574
    154.00   -0.8138    0.3336
    155.00   -0.7938    0.3104
    156.00   -0.7731    0.2880
    157.00   -0.7520    0.2662
    158.00   -0.7306    0.2451
    159.00   -0.7091    0.2248
    160.00   -0.6879    0.2052
    161.00   -0.6674    0.1865
    162.00   -0.6483    0.1686
    163.00   -0.6316    0.1515
    164.00   -0.6187    0.1353
    165.00   -0.6116    0.1200
    166.00   -0.6133    0.1056
    167.00   -0.6277    0.0921
    168.00   -0.6583    0.0795
    169.00   -0.7041    0.0679
    170.00   -0.7518    0.0573
    171.00   -0.7744    0.0476
    172.00   -0.7502    0.0389
    173.00   -0.6841    0.0312
    174.00   -0.5972    0.0246
    175.00   -0.5051    0.0189
    176.00   -0.4127    0.0143
    177.00   -0.3204    0.0107
    178.00   -0.2280    0.0081
    179.00   -0.1357    0.0065
    180.00   -0.0433    0.0060
    180.00   -0.0433    0.0060
