AeroDyn airfoil file Created with QBlade v0.91b 32-Bit on 03.06.2016 at 14:37:46 Compatible with AeroDyn v13.0.
Polar "T1_Re2.700_M0.00_N9.0 360 M" on Foil "T1_Re2.700_M0.00_N9.0" :: generated by QBlade
1              Number of airfoil tables in this file
0              Table ID parameter
19.00          Stall angle (deg)
0              No longer used, enter zero
0              No longer used, enter zero
0              No longer used, enter zero
-1.46          Angle of attack for zero Cn for linear Cn curve (deg)
6.63509        Cn slope for zero lift for linear Cn curve (1/rad)
1.1997         Cn at stall value for positive angle of attack for linear Cn curve
-0.8921        Cn at stall value for negative angle of attack for linear Cn curve
-1.50          Angle of attack for minimum CD (deg)
0.0088         Minimum CD value
   -180.00   -0.0433    0.0060
   -179.00    0.0491    0.0065
   -178.00    0.1414    0.0081
   -177.00    0.2338    0.0106
   -176.00    0.3262    0.0143
   -175.00    0.4186    0.0189
   -174.00    0.5108    0.0245
   -173.00    0.5975    0.0312
   -172.00    0.6600    0.0388
   -171.00    0.6735    0.0475
   -170.00    0.6358    0.0571
   -169.00    0.5762    0.0677
   -168.00    0.5244    0.0792
   -167.00    0.4911    0.0917
   -166.00    0.4748    0.1051
   -165.00    0.4709    0.1195
   -164.00    0.4750    0.1347
   -163.00    0.4842    0.1507
   -162.00    0.4966    0.1677
   -161.00    0.5108    0.1854
   -160.00    0.5259    0.2040
   -159.00    0.5415    0.2233
   -158.00    0.5571    0.2434
   -157.00    0.5725    0.2642
   -156.00    0.5874    0.2858
   -155.00    0.6017    0.3080
   -154.00    0.6153    0.3309
   -153.00    0.6282    0.3544
   -152.00    0.6402    0.3785
   -151.00    0.6514    0.4032
   -150.00    0.6617    0.4284
   -149.00    0.6710    0.4542
   -148.00    0.6794    0.4804
   -147.00    0.6868    0.5070
   -146.00    0.6932    0.5341
   -145.00    0.6987    0.5615
   -144.00    0.7031    0.5893
   -143.00    0.7066    0.6174
   -142.00    0.7091    0.6458
   -141.00    0.7106    0.6744
   -140.00    0.7111    0.7032
   -139.00    0.7106    0.7322
   -138.00    0.7092    0.7613
   -137.00    0.7069    0.7906
   -136.00    0.7036    0.8199
   -135.00    0.6993    0.8492
   -134.00    0.6942    0.8785
   -133.00    0.6881    0.9078
   -132.00    0.6812    0.9370
   -131.00    0.6734    0.9661
   -130.00    0.6648    0.9951
   -129.00    0.6554    1.0238
   -128.00    0.6451    1.0524
   -127.00    0.6340    1.0807
   -126.00    0.6222    1.1087
   -125.00    0.6097    1.1364
   -124.00    0.5964    1.1637
   -123.00    0.5825    1.1907
   -122.00    0.5678    1.2172
   -121.00    0.5525    1.2433
   -120.00    0.5366    1.2689
   -119.00    0.5201    1.2940
   -118.00    0.5031    1.3185
   -117.00    0.4854    1.3425
   -116.00    0.4673    1.3658
   -115.00    0.4487    1.3886
   -114.00    0.4296    1.4106
   -113.00    0.4100    1.4320
   -112.00    0.3901    1.4527
   -111.00    0.3697    1.4726
   -110.00    0.3490    1.4918
   -109.00    0.3279    1.5102
   -108.00    0.3066    1.5278
   -107.00    0.2849    1.5446
   -106.00    0.2630    1.5605
   -105.00    0.2409    1.5755
   -104.00    0.2182    1.5897
   -103.00    0.1956    1.6030
   -102.00    0.1730    1.6153
   -101.00    0.1501    1.6267
   -100.00    0.1272    1.6372
    -99.00    0.1042    1.6467
    -98.00    0.0811    1.6553
    -97.00    0.0580    1.6628
    -96.00    0.0349    1.6694
    -95.00    0.0119    1.6750
    -94.00   -0.0112    1.6795
    -93.00   -0.0342    1.6831
    -92.00   -0.0571    1.6856
    -91.00   -0.0799    1.6872
    -90.00   -0.1026    1.6877
    -89.00   -0.1251    1.6872
    -88.00   -0.1474    1.6856
    -87.00   -0.1696    1.6831
    -86.00   -0.1915    1.6795
    -85.00   -0.2132    1.6750
    -84.00   -0.2346    1.6694
    -83.00   -0.2558    1.6628
    -82.00   -0.2767    1.6552
    -81.00   -0.2972    1.6467
    -80.00   -0.3174    1.6372
    -79.00   -0.3373    1.6267
    -78.00   -0.3568    1.6153
    -77.00   -0.3759    1.6029
    -76.00   -0.3946    1.5897
    -75.00   -0.4128    1.5755
    -74.00   -0.4307    1.5604
    -73.00   -0.4480    1.5445
    -72.00   -0.4649    1.5278
    -71.00   -0.4813    1.5102
    -70.00   -0.4972    1.4918
    -69.00   -0.5126    1.4726
    -68.00   -0.5274    1.4526
    -67.00   -0.5417    1.4320
    -66.00   -0.5555    1.4106
    -65.00   -0.5686    1.3885
    -64.00   -0.5812    1.3657
    -63.00   -0.5932    1.3424
    -62.00   -0.6045    1.3184
    -61.00   -0.6152    1.2939
    -60.00   -0.6253    1.2688
    -59.00   -0.6348    1.2432
    -58.00   -0.6435    1.2171
    -57.00   -0.6517    1.1905
    -56.00   -0.6591    1.1636
    -55.00   -0.6659    1.1362
    -54.00   -0.6719    1.1085
    -53.00   -0.6773    1.0805
    -52.00   -0.6819    1.0522
    -51.00   -0.6859    1.0236
    -50.00   -0.6891    0.9948
    -49.00   -0.6916    0.9659
    -48.00   -0.6933    0.9368
    -47.00   -0.6944    0.9075
    -46.00   -0.6947    0.8782
    -45.00   -0.6942    0.8489
    -44.00   -0.6930    0.8195
    -43.00   -0.6911    0.7902
    -42.00   -0.6884    0.7609
    -41.00   -0.6850    0.7318
    -40.00   -0.6809    0.7027
    -39.00   -0.6760    0.6738
    -38.00   -0.6704    0.6452
    -37.00   -0.6642    0.6168
    -36.00   -0.6571    0.5886
    -35.00   -0.6495    0.5607
    -34.00   -0.6411    0.5332
    -33.00   -0.6321    0.5061
    -32.00   -0.6225    0.4793
    -31.00   -0.6122    0.4530
    -30.00   -0.6015    0.4271
    -29.00   -0.5902    0.4017
    -28.00   -0.5785    0.3768
    -27.00   -0.5665    0.3525
    -26.00   -0.5543    0.3287
    -25.00   -0.5421    0.3054
    -24.00   -0.5301    0.2827
    -23.00   -0.5186    0.2606
    -22.00   -0.5082    0.2391
    -21.00   -0.4995    0.2181
    -20.00   -0.4937    0.1975
    -19.00   -0.4925    0.1773
    -18.00   -0.4984    0.1573
    -17.00   -0.5156    0.1373
    -16.00   -0.5501    0.1169
    -15.00   -0.6106    0.0957
    -14.00   -0.7045    0.0735
    -13.00   -0.8277    0.0514
    -12.00   -0.9455    0.0323
    -11.00   -0.9991    0.0199
    -10.00   -0.9487    0.0139
     -9.50   -0.9024    0.0126
     -9.00   -0.8489    0.0123
     -8.50   -0.7945    0.0120
     -8.00   -0.7398    0.0117
     -7.50   -0.6849    0.0114
     -7.00   -0.6297    0.0111
     -6.50   -0.5750    0.0106
     -6.00   -0.5196    0.0101
     -5.50   -0.4630    0.0099
     -5.00   -0.4066    0.0096
     -4.50   -0.3502    0.0093
     -4.00   -0.2936    0.0089
     -3.50   -0.2358    0.0089
     -3.00   -0.1780    0.0088
     -2.50   -0.1201    0.0088
     -2.00   -0.0621    0.0088
     -1.50   -0.0042    0.0088
     -1.00    0.0537    0.0088
     -0.50    0.1116    0.0088
      0.00    0.1695    0.0088
      0.50    0.2274    0.0088
      1.00    0.2851    0.0089
      1.50    0.3429    0.0089
      2.00    0.4005    0.0090
      2.50    0.4580    0.0091
      3.00    0.5155    0.0092
      3.50    0.5728    0.0093
      4.00    0.6299    0.0094
      4.50    0.6869    0.0095
      5.00    0.7437    0.0096
      5.50    0.7970    0.0101
      6.00    0.8496    0.0107
      6.50    0.9030    0.0112
      7.00    0.9569    0.0115
      7.50    1.0084    0.0121
      8.50    1.1118    0.0131
      9.00    1.1637    0.0134
      9.50    1.2141    0.0139
     10.00    1.2575    0.0149
     10.50    1.2988    0.0160
     11.00    1.3338    0.0173
     11.50    1.3515    0.0190
     12.00    1.3601    0.0213
     12.50    1.3842    0.0229
     13.00    1.4090    0.0247
     13.50    1.4344    0.0266
     14.00    1.4605    0.0285
     14.50    1.4863    0.0306
     15.00    1.5116    0.0328
     15.50    1.5362    0.0352
     16.00    1.5593    0.0378
     16.50    1.5803    0.0406
     17.00    1.6003    0.0437
     17.50    1.6167    0.0474
     18.00    1.6297    0.0517
     18.50    1.6388    0.0565
     19.00    1.6436    0.0621
     19.50    1.6418    0.0689
     20.00    1.5692    0.0867
     20.50    1.5239    0.1018
     21.00    1.4779    0.1180
     21.50    1.4291    0.1354
     22.00    1.3784    0.1543
     22.50    1.3266    0.1746
     23.00    1.2724    0.1968
     23.50    1.2143    0.2211
     24.00    1.2038    0.2251
     25.00    1.1481    0.2549
     26.00    1.1043    0.2846
     27.00    1.0707    0.3142
     28.00    1.0456    0.3436
     29.00    1.0275    0.3729
     30.00    1.0149    0.4022
     31.00    1.0068    0.4315
     32.00    1.0021    0.4609
     33.00    1.0002    0.4904
     34.00    1.0003    0.5200
     35.00    1.0019    0.5498
     36.00    1.0046    0.5796
     37.00    1.0081    0.6097
     38.00    1.0120    0.6398
     39.00    1.0162    0.6701
     40.00    1.0203    0.7004
     41.00    1.0243    0.7309
     42.00    1.0279    0.7614
     43.00    1.0312    0.7919
     44.00    1.0339    0.8224
     45.00    1.0360    0.8530
     46.00    1.0375    0.8834
     47.00    1.0382    0.9138
     48.00    1.0380    0.9441
     49.00    1.0371    0.9742
     50.00    1.0352    1.0042
     51.00    1.0324    1.0339
     52.00    1.0287    1.0635
     53.00    1.0239    1.0927
     54.00    1.0182    1.1216
     55.00    1.0115    1.1502
     56.00    1.0037    1.1784
     57.00    0.9948    1.2062
     58.00    0.9849    1.2336
     59.00    0.9740    1.2605
     60.00    0.9619    1.2869
     61.00    0.9488    1.3128
     62.00    0.9347    1.3381
     63.00    0.9195    1.3628
     64.00    0.9032    1.3869
     65.00    0.8859    1.4104
     66.00    0.8675    1.4331
     67.00    0.8481    1.4552
     68.00    0.8277    1.4765
     69.00    0.8063    1.4971
     70.00    0.7840    1.5169
     71.00    0.7607    1.5359
     72.00    0.7364    1.5540
     73.00    0.7112    1.5713
     74.00    0.6852    1.5878
     75.00    0.6583    1.6033
     76.00    0.6305    1.6179
     77.00    0.6020    1.6316
     78.00    0.5727    1.6444
     79.00    0.5426    1.6562
     80.00    0.5119    1.6670
     81.00    0.4804    1.6768
     82.00    0.4484    1.6857
     83.00    0.4157    1.6935
     84.00    0.3825    1.7003
     85.00    0.3488    1.7061
     86.00    0.3146    1.7108
     87.00    0.2799    1.7145
     88.00    0.2449    1.7171
     89.00    0.2095    1.7187
     90.00    0.1739    1.7193
     91.00    0.1380    1.7188
     92.00    0.1018    1.7173
     93.00    0.0655    1.7147
     94.00    0.0292    1.7110
     95.00   -0.0073    1.7064
     96.00   -0.0438    1.7006
     97.00   -0.0802    1.6939
     98.00   -0.1166    1.6862
     99.00   -0.1528    1.6774
    100.00   -0.1888    1.6676
    101.00   -0.2246    1.6569
    102.00   -0.2601    1.6452
    103.00   -0.2953    1.6325
    104.00   -0.3301    1.6188
    105.00   -0.3670    1.6043
    106.00   -0.4009    1.5888
    107.00   -0.4342    1.5725
    108.00   -0.4669    1.5553
    109.00   -0.4990    1.5372
    110.00   -0.5304    1.5183
    111.00   -0.5612    1.4987
    112.00   -0.5911    1.4782
    113.00   -0.6203    1.4570
    114.00   -0.6486    1.4350
    115.00   -0.6761    1.4124
    116.00   -0.7026    1.3891
    117.00   -0.7282    1.3651
    118.00   -0.7527    1.3405
    119.00   -0.7763    1.3154
    120.00   -0.7987    1.2897
    121.00   -0.8201    1.2635
    122.00   -0.8403    1.2367
    123.00   -0.8594    1.2096
    124.00   -0.8772    1.1820
    125.00   -0.8939    1.1540
    126.00   -0.9093    1.1257
    127.00   -0.9235    1.0970
    128.00   -0.9364    1.0681
    129.00   -0.9480    1.0389
    130.00   -0.9583    1.0095
    131.00   -0.9672    0.9799
    132.00   -0.9748    0.9502
    133.00   -0.9811    0.9204
    134.00   -0.9860    0.8905
    135.00   -0.9896    0.8605
    136.00   -0.9918    0.8306
    137.00   -0.9927    0.8008
    138.00   -0.9922    0.7710
    139.00   -0.9903    0.7413
    140.00   -0.9872    0.7117
    141.00   -0.9827    0.6824
    142.00   -0.9768    0.6533
    143.00   -0.9697    0.6244
    144.00   -0.9613    0.5958
    145.00   -0.9517    0.5676
    146.00   -0.9408    0.5397
    147.00   -0.9287    0.5122
    148.00   -0.9154    0.4851
    149.00   -0.9010    0.4586
    150.00   -0.8856    0.4324
    151.00   -0.8691    0.4069
    152.00   -0.8516    0.3819
    153.00   -0.8331    0.3574
    154.00   -0.8139    0.3336
    155.00   -0.7939    0.3104
    156.00   -0.7733    0.2880
    157.00   -0.7522    0.2662
    158.00   -0.7308    0.2451
    159.00   -0.7094    0.2248
    160.00   -0.6883    0.2052
    161.00   -0.6680    0.1865
    162.00   -0.6492    0.1686
    163.00   -0.6329    0.1515
    164.00   -0.6206    0.1353
    165.00   -0.6146    0.1200
    166.00   -0.6179    0.1056
    167.00   -0.6348    0.0921
    168.00   -0.6687    0.0795
    169.00   -0.7176    0.0679
    170.00   -0.7663    0.0573
    171.00   -0.7856    0.0476
    172.00   -0.7560    0.0389
    173.00   -0.6860    0.0312
    174.00   -0.5976    0.0246
    175.00   -0.5053    0.0189
    176.00   -0.4129    0.0143
    177.00   -0.3205    0.0107
    178.00   -0.2281    0.0081
    179.00   -0.1357    0.0065
    180.00   -0.0433    0.0060
    180.00   -0.0433    0.0060
