AeroDyn airfoil file Created with QBlade v0.91b 32-Bit on 03.06.2016 at 15:15:50 Compatible with AeroDyn v13.0.
Polar "T1_Re2.400_M0.00_N9.0 360 M" on Foil "T1_Re2.400_M0.00_N9.0" :: generated by QBlade
1              Number of airfoil tables in this file
0              Table ID parameter
18.50          Stall angle (deg)
0              No longer used, enter zero
0              No longer used, enter zero
0              No longer used, enter zero
0.00           Angle of attack for zero Cn for linear Cn curve (deg)
6.35505        Cn slope for zero lift for linear Cn curve (1/rad)
-0.9749        Cn at stall value for positive angle of attack for linear Cn curve
-1.0171        Cn at stall value for negative angle of attack for linear Cn curve
0.00           Angle of attack for minimum CD (deg)
0.0070         Minimum CD value
   -180.00    0.0000    0.0060
   -179.00    0.0888    0.0065
   -178.00    0.1776    0.0080
   -177.00    0.2664    0.0105
   -176.00    0.3552    0.0140
   -175.00    0.4440    0.0185
   -174.00    0.5323    0.0239
   -173.00    0.6141    0.0303
   -172.00    0.6724    0.0378
   -171.00    0.6869    0.0461
   -170.00    0.6573    0.0554
   -169.00    0.6079    0.0657
   -168.00    0.5639    0.0769
   -167.00    0.5355    0.0890
   -166.00    0.5222    0.1019
   -165.00    0.5203    0.1158
   -164.00    0.5261    0.1306
   -163.00    0.5371    0.1461
   -162.00    0.5512    0.1625
   -161.00    0.5673    0.1798
   -160.00    0.5845    0.1978
   -159.00    0.6022    0.2165
   -158.00    0.6201    0.2361
   -157.00    0.6379    0.2563
   -156.00    0.6553    0.2772
   -155.00    0.6721    0.2988
   -154.00    0.6884    0.3210
   -153.00    0.7039    0.3439
   -152.00    0.7187    0.3673
   -151.00    0.7326    0.3913
   -150.00    0.7455    0.4159
   -149.00    0.7576    0.4409
   -148.00    0.7687    0.4664
   -147.00    0.7787    0.4923
   -146.00    0.7878    0.5186
   -145.00    0.7958    0.5453
   -144.00    0.8027    0.5724
   -143.00    0.8085    0.5998
   -142.00    0.8133    0.6274
   -141.00    0.8169    0.6553
   -140.00    0.8195    0.6834
   -139.00    0.8210    0.7116
   -138.00    0.8213    0.7400
   -137.00    0.8205    0.7685
   -136.00    0.8187    0.7971
   -135.00    0.8157    0.8257
   -134.00    0.8116    0.8543
   -133.00    0.8065    0.8829
   -132.00    0.8002    0.9114
   -131.00    0.7929    0.9398
   -130.00    0.7846    0.9680
   -129.00    0.7752    0.9961
   -128.00    0.7647    1.0240
   -127.00    0.7533    1.0516
   -126.00    0.7409    1.0790
   -125.00    0.7274    1.1061
   -124.00    0.7131    1.1328
   -123.00    0.6978    1.1591
   -122.00    0.6816    1.1850
   -121.00    0.6646    1.2105
   -120.00    0.6466    1.2356
   -119.00    0.6279    1.2601
   -118.00    0.6083    1.2841
   -117.00    0.5880    1.3075
   -116.00    0.5669    1.3304
   -115.00    0.5451    1.3526
   -114.00    0.5227    1.3742
   -113.00    0.4996    1.3951
   -112.00    0.4758    1.4153
   -111.00    0.4515    1.4349
   -110.00    0.4267    1.4536
   -109.00    0.4013    1.4716
   -108.00    0.3754    1.4889
   -107.00    0.3491    1.5053
   -106.00    0.3224    1.5208
   -105.00    0.2950    1.5356
   -104.00    0.2676    1.5495
   -103.00    0.2398    1.5624
   -102.00    0.2119    1.5745
   -101.00    0.1836    1.5857
   -100.00    0.1552    1.5960
    -99.00    0.1267    1.6053
    -98.00    0.0980    1.6136
    -97.00    0.0692    1.6210
    -96.00    0.0404    1.6275
    -95.00    0.0116    1.6329
    -94.00   -0.0172    1.6374
    -93.00   -0.0459    1.6409
    -92.00   -0.0746    1.6434
    -91.00   -0.1031    1.6449
    -90.00   -0.1314    1.6454
    -89.00   -0.1596    1.6449
    -88.00   -0.1875    1.6434
    -87.00   -0.2151    1.6409
    -86.00   -0.2425    1.6374
    -85.00   -0.2695    1.6329
    -84.00   -0.2962    1.6275
    -83.00   -0.3224    1.6210
    -82.00   -0.3483    1.6136
    -81.00   -0.3737    1.6053
    -80.00   -0.3986    1.5959
    -79.00   -0.4230    1.5857
    -78.00   -0.4469    1.5745
    -77.00   -0.4702    1.5624
    -76.00   -0.4929    1.5494
    -75.00   -0.5150    1.5355
    -74.00   -0.5365    1.5208
    -73.00   -0.5574    1.5052
    -72.00   -0.5775    1.4888
    -71.00   -0.5970    1.4716
    -70.00   -0.6158    1.4536
    -69.00   -0.6338    1.4348
    -68.00   -0.6511    1.4153
    -67.00   -0.6676    1.3950
    -66.00   -0.6833    1.3741
    -65.00   -0.6982    1.3525
    -64.00   -0.7124    1.3303
    -63.00   -0.7257    1.3074
    -62.00   -0.7381    1.2840
    -61.00   -0.7497    1.2600
    -60.00   -0.7605    1.2354
    -59.00   -0.7704    1.2104
    -58.00   -0.7794    1.1849
    -57.00   -0.7876    1.1590
    -56.00   -0.7948    1.1326
    -55.00   -0.8012    1.1059
    -54.00   -0.8067    1.0788
    -53.00   -0.8113    1.0515
    -52.00   -0.8150    1.0238
    -51.00   -0.8178    0.9959
    -50.00   -0.8197    0.9678
    -49.00   -0.8208    0.9396
    -48.00   -0.8209    0.9111
    -47.00   -0.8202    0.8826
    -46.00   -0.8185    0.8540
    -45.00   -0.8160    0.8254
    -44.00   -0.8127    0.7968
    -43.00   -0.8085    0.7682
    -42.00   -0.8034    0.7396
    -41.00   -0.7975    0.7112
    -40.00   -0.7908    0.6829
    -39.00   -0.7833    0.6548
    -38.00   -0.7751    0.6268
    -37.00   -0.7660    0.5992
    -36.00   -0.7562    0.5717
    -35.00   -0.7457    0.5446
    -34.00   -0.7345    0.5178
    -33.00   -0.7226    0.4914
    -32.00   -0.7101    0.4653
    -31.00   -0.6971    0.4397
    -30.00   -0.6836    0.4145
    -29.00   -0.6696    0.3898
    -28.00   -0.6554    0.3656
    -27.00   -0.6409    0.3419
    -26.00   -0.6265    0.3187
    -25.00   -0.6122    0.2961
    -24.00   -0.5986    0.2739
    -23.00   -0.5861    0.2523
    -22.00   -0.5754    0.2312
    -21.00   -0.5677    0.2105
    -20.00   -0.5649    0.1902
    -19.00   -0.5698    0.1700
    -18.00   -0.5871    0.1496
    -17.00   -0.6244    0.1287
    -16.00   -0.6925    0.1067
    -15.00   -0.8038    0.0832
    -14.00   -0.9590    0.0591
    -13.00   -1.1207    0.0374
    -12.00   -1.2127    0.0231
    -11.00   -1.1963    0.0170
    -10.00   -1.0308    0.0110
     -9.50   -0.9867    0.0105
     -9.00   -0.9440    0.0101
     -8.50   -0.9005    0.0097
     -8.00   -0.8557    0.0093
     -7.50   -0.8052    0.0091
     -7.00   -0.7564    0.0087
     -6.50   -0.7055    0.0085
     -6.00   -0.6527    0.0083
     -5.50   -0.6013    0.0080
     -5.00   -0.5482    0.0078
     -4.50   -0.4942    0.0077
     -4.00   -0.4408    0.0075
     -3.50   -0.3870    0.0074
     -3.00   -0.3319    0.0073
     -2.50   -0.2772    0.0072
     -2.00   -0.2220    0.0071
     -1.50   -0.1666    0.0071
     -1.00   -0.1110    0.0071
     -0.50   -0.0560    0.0070
      0.00   -0.0000    0.0070
      0.50    0.0560    0.0070
      1.00    0.1110    0.0071
      1.50    0.1666    0.0071
      2.00    0.2220    0.0071
      2.50    0.2772    0.0072
      3.00    0.3319    0.0073
      3.50    0.3871    0.0074
      4.00    0.4409    0.0075
      4.50    0.4943    0.0077
      5.00    0.5483    0.0078
      5.50    0.6015    0.0080
      6.00    0.6529    0.0083
      6.50    0.7058    0.0085
      7.00    0.7566    0.0087
      7.50    0.8056    0.0091
      8.00    0.8561    0.0093
      8.50    0.9011    0.0097
      9.00    0.9447    0.0101
      9.50    0.9875    0.0105
     10.00    1.0317    0.0110
     10.50    1.0704    0.0116
     11.00    1.1109    0.0121
     11.50    1.1441    0.0130
     12.00    1.1922    0.0137
     12.50    1.2460    0.0147
     13.00    1.2986    0.0158
     13.50    1.3343    0.0167
     14.00    1.3536    0.0179
     14.50    1.3774    0.0196
     15.00    1.4091    0.0210
     15.50    1.4374    0.0227
     16.00    1.4590    0.0250
     16.50    1.4764    0.0278
     17.00    1.4967    0.0306
     17.50    1.5181    0.0333
     18.00    1.5338    0.0368
     18.50    1.5415    0.0411
     19.00    1.5412    0.0462
     19.50    1.5364    0.0520
     20.00    1.5311    0.0581
     20.50    1.5311    0.0638
     21.00    1.5253    0.0701
     21.50    1.5135    0.0772
     22.00    1.4967    0.0851
     22.50    1.4742    0.0939
     23.00    1.4458    0.1034
     23.50    1.4135    0.1138
     24.00    1.3716    0.1258
     24.50    1.3371    0.1371
     25.00    1.3346    0.1437
     26.00    1.2957    0.2304
     27.00    1.2589    0.2577
     28.00    1.2249    0.2857
     29.00    1.1937    0.3141
     30.00    1.1655    0.3431
     31.00    1.1403    0.3723
     32.00    1.1178    0.4018
     33.00    1.0978    0.4316
     34.00    1.0802    0.4616
     35.00    1.0645    0.4917
     36.00    1.0506    0.5220
     37.00    1.0382    0.5523
     38.00    1.0271    0.5828
     39.00    1.0171    0.6132
     40.00    1.0080    0.6438
     41.00    0.9995    0.6743
     42.00    0.9915    0.7048
     43.00    0.9839    0.7353
     44.00    0.9766    0.7658
     45.00    0.9694    0.7961
     46.00    0.9622    0.8263
     47.00    0.9549    0.8564
     48.00    0.9475    0.8863
     49.00    0.9398    0.9161
     50.00    0.9319    0.9456
     51.00    0.9236    0.9748
     52.00    0.9148    1.0038
     53.00    0.9056    1.0325
     54.00    0.8960    1.0608
     55.00    0.8858    1.0888
     56.00    0.8750    1.1163
     57.00    0.8637    1.1435
     58.00    0.8517    1.1702
     59.00    0.8391    1.1964
     60.00    0.8259    1.2221
     61.00    0.8121    1.2473
     62.00    0.7976    1.2719
     63.00    0.7824    1.2959
     64.00    0.7666    1.3193
     65.00    0.7500    1.3420
     66.00    0.7329    1.3641
     67.00    0.7150    1.3855
     68.00    0.6965    1.4062
     69.00    0.6774    1.4261
     70.00    0.6576    1.4453
     71.00    0.6371    1.4637
     72.00    0.6161    1.4813
     73.00    0.5944    1.4980
     74.00    0.5721    1.5139
     75.00    0.5493    1.5290
     76.00    0.5259    1.5431
     77.00    0.5019    1.5564
     78.00    0.4774    1.5688
     79.00    0.4525    1.5802
     80.00    0.4270    1.5907
     81.00    0.4011    1.6003
     82.00    0.3748    1.6089
     83.00    0.3480    1.6165
     84.00    0.3209    1.6231
     85.00    0.2934    1.6288
     86.00    0.2656    1.6334
     87.00    0.2375    1.6371
     88.00    0.2091    1.6398
     89.00    0.1805    1.6414
     90.00    0.1517    1.6421
     91.00    0.1228    1.6417
     92.00    0.0937    1.6404
     93.00    0.0644    1.6380
     94.00    0.0351    1.6347
     95.00    0.0058    1.6303
     96.00   -0.0235    1.6250
     97.00   -0.0528    1.6187
     98.00   -0.0821    1.6114
     99.00   -0.1112    1.6031
    100.00   -0.1402    1.5939
    101.00   -0.1691    1.5837
    102.00   -0.1977    1.5727
    103.00   -0.2261    1.5606
    104.00   -0.2542    1.5477
    105.00   -0.2819    1.5340
    106.00   -0.3224    1.5193
    107.00   -0.3491    1.5038
    108.00   -0.3754    1.4875
    109.00   -0.4013    1.4703
    110.00   -0.4267    1.4524
    111.00   -0.4515    1.4337
    112.00   -0.4759    1.4142
    113.00   -0.4996    1.3940
    114.00   -0.5227    1.3732
    115.00   -0.5452    1.3516
    116.00   -0.5669    1.3294
    117.00   -0.5880    1.3066
    118.00   -0.6083    1.2832
    119.00   -0.6279    1.2593
    120.00   -0.6466    1.2348
    121.00   -0.6646    1.2098
    122.00   -0.6816    1.1844
    123.00   -0.6978    1.1585
    124.00   -0.7131    1.1322
    125.00   -0.7275    1.1055
    126.00   -0.7409    1.0785
    127.00   -0.7533    1.0511
    128.00   -0.7647    1.0235
    129.00   -0.7752    0.9957
    130.00   -0.7846    0.9676
    131.00   -0.7929    0.9394
    132.00   -0.8002    0.9110
    133.00   -0.8065    0.8825
    134.00   -0.8116    0.8540
    135.00   -0.8157    0.8254
    136.00   -0.8187    0.7968
    137.00   -0.8206    0.7683
    138.00   -0.8213    0.7398
    139.00   -0.8210    0.7114
    140.00   -0.8195    0.6832
    141.00   -0.8170    0.6551
    142.00   -0.8133    0.6272
    143.00   -0.8086    0.5996
    144.00   -0.8027    0.5722
    145.00   -0.7958    0.5452
    146.00   -0.7878    0.5185
    147.00   -0.7788    0.4922
    148.00   -0.7687    0.4663
    149.00   -0.7577    0.4408
    150.00   -0.7456    0.4158
    151.00   -0.7326    0.3912
    152.00   -0.7188    0.3673
    153.00   -0.7040    0.3438
    154.00   -0.6885    0.3210
    155.00   -0.6723    0.2988
    156.00   -0.6554    0.2772
    157.00   -0.6380    0.2562
    158.00   -0.6203    0.2360
    159.00   -0.6025    0.2165
    160.00   -0.5848    0.1977
    161.00   -0.5676    0.1797
    162.00   -0.5516    0.1625
    163.00   -0.5375    0.1461
    164.00   -0.5267    0.1305
    165.00   -0.5209    0.1158
    166.00   -0.5229    0.1019
    167.00   -0.5363    0.0890
    168.00   -0.5647    0.0769
    169.00   -0.6083    0.0657
    170.00   -0.6573    0.0554
    171.00   -0.6866    0.0461
    172.00   -0.6720    0.0378
    173.00   -0.6139    0.0304
    174.00   -0.5322    0.0239
    175.00   -0.4440    0.0185
    176.00   -0.3552    0.0140
    177.00   -0.2664    0.0105
    178.00   -0.1776    0.0080
    179.00   -0.0888    0.0065
    180.00    0.0000    0.0060
    180.00    0.0000    0.0060
