AeroDyn airfoil file Created with QBlade v0.91b 32-Bit on 03.06.2016 at 09:19:58 Compatible with AeroDyn v13.0.
Polar "T1_Re1.200_M0.00_N9.0 360 M" on Foil "T1_Re1.200_M0.00_N9.0" :: generated by QBlade
1              Number of airfoil tables in this file
0              Table ID parameter
18.00          Stall angle (deg)
0              No longer used, enter zero
0              No longer used, enter zero
0              No longer used, enter zero
0.00           Angle of attack for zero Cn for linear Cn curve (deg)
6.11675        Cn slope for zero lift for linear Cn curve (1/rad)
1.0530         Cn at stall value for positive angle of attack for linear Cn curve
-0.9715        Cn at stall value for negative angle of attack for linear Cn curve
0.00           Angle of attack for minimum CD (deg)
0.0129         Minimum CD value
   -180.00    0.0000    0.0060
   -179.00    0.0854    0.0065
   -178.00    0.1706    0.0080
   -177.00    0.2539    0.0105
   -176.00    0.3300    0.0140
   -175.00    0.3899    0.0185
   -174.00    0.4262    0.0239
   -173.00    0.4395    0.0304
   -172.00    0.4386    0.0378
   -171.00    0.4337    0.0461
   -170.00    0.4312    0.0554
   -169.00    0.4336    0.0657
   -168.00    0.4409    0.0769
   -167.00    0.4523    0.0890
   -166.00    0.4667    0.1019
   -165.00    0.4834    0.1158
   -164.00    0.5015    0.1306
   -163.00    0.5206    0.1461
   -162.00    0.5402    0.1625
   -161.00    0.5599    0.1798
   -160.00    0.5797    0.1978
   -159.00    0.5992    0.2165
   -158.00    0.6183    0.2360
   -157.00    0.6368    0.2563
   -156.00    0.6548    0.2772
   -155.00    0.6721    0.2988
   -154.00    0.6887    0.3210
   -153.00    0.7044    0.3439
   -152.00    0.7193    0.3673
   -151.00    0.7333    0.3913
   -150.00    0.7463    0.4158
   -149.00    0.7584    0.4408
   -148.00    0.7695    0.4663
   -147.00    0.7796    0.4923
   -146.00    0.7886    0.5186
   -145.00    0.7966    0.5453
   -144.00    0.8035    0.5724
   -143.00    0.8093    0.5997
   -142.00    0.8140    0.6273
   -141.00    0.8177    0.6552
   -140.00    0.8202    0.6833
   -139.00    0.8216    0.7116
   -138.00    0.8220    0.7400
   -137.00    0.8212    0.7685
   -136.00    0.8193    0.7970
   -135.00    0.8163    0.8256
   -134.00    0.8122    0.8542
   -133.00    0.8070    0.8828
   -132.00    0.8007    0.9113
   -131.00    0.7934    0.9397
   -130.00    0.7850    0.9679
   -129.00    0.7756    0.9960
   -128.00    0.7652    1.0239
   -127.00    0.7537    1.0515
   -126.00    0.7413    1.0789
   -125.00    0.7278    1.1059
   -124.00    0.7135    1.1326
   -123.00    0.6982    1.1589
   -122.00    0.6820    1.1848
   -121.00    0.6649    1.2103
   -120.00    0.6470    1.2353
   -119.00    0.6282    1.2599
   -118.00    0.6086    1.2838
   -117.00    0.5883    1.3073
   -116.00    0.5672    1.3301
   -115.00    0.5454    1.3523
   -114.00    0.5230    1.3739
   -113.00    0.4998    1.3948
   -112.00    0.4761    1.4150
   -111.00    0.4518    1.4345
   -110.00    0.4269    1.4533
   -109.00    0.3977    1.4713
   -108.00    0.3718    1.4885
   -107.00    0.3454    1.5048
   -106.00    0.3186    1.5204
   -105.00    0.2914    1.5351
   -104.00    0.2639    1.5490
   -103.00    0.2361    1.5619
   -102.00    0.2080    1.5740
   -101.00    0.1797    1.5852
   -100.00    0.1512    1.5954
    -99.00    0.1225    1.6047
    -98.00    0.0937    1.6130
    -97.00    0.0648    1.6204
    -96.00    0.0358    1.6268
    -95.00    0.0069    1.6322
    -94.00   -0.0221    1.6366
    -93.00   -0.0509    1.6401
    -92.00   -0.0797    1.6425
    -91.00   -0.1084    1.6440
    -90.00   -0.1369    1.6445
    -89.00   -0.1652    1.6439
    -88.00   -0.1933    1.6424
    -87.00   -0.2212    1.6398
    -86.00   -0.2487    1.6363
    -85.00   -0.2759    1.6318
    -84.00   -0.3028    1.6262
    -83.00   -0.3293    1.6198
    -82.00   -0.3554    1.6123
    -81.00   -0.3810    1.6039
    -80.00   -0.4062    1.5945
    -79.00   -0.4309    1.5842
    -78.00   -0.4550    1.5729
    -77.00   -0.4787    1.5607
    -76.00   -0.5017    1.5477
    -75.00   -0.5242    1.5337
    -74.00   -0.5460    1.5189
    -73.00   -0.5673    1.5032
    -72.00   -0.5878    1.4867
    -71.00   -0.6077    1.4694
    -70.00   -0.6269    1.4513
    -69.00   -0.6454    1.4324
    -68.00   -0.6632    1.4127
    -67.00   -0.6802    1.3924
    -66.00   -0.6965    1.3713
    -65.00   -0.7120    1.3496
    -64.00   -0.7267    1.3272
    -63.00   -0.7407    1.3042
    -62.00   -0.7539    1.2806
    -61.00   -0.7662    1.2565
    -60.00   -0.7778    1.2317
    -59.00   -0.7885    1.2065
    -58.00   -0.7985    1.1808
    -57.00   -0.8076    1.1547
    -56.00   -0.8160    1.1281
    -55.00   -0.8235    1.1012
    -54.00   -0.8302    1.0739
    -53.00   -0.8361    1.0462
    -52.00   -0.8412    1.0183
    -51.00   -0.8456    0.9901
    -50.00   -0.8492    0.9617
    -49.00   -0.8520    0.9331
    -48.00   -0.8541    0.9043
    -47.00   -0.8555    0.8754
    -46.00   -0.8562    0.8464
    -45.00   -0.8563    0.8173
    -44.00   -0.8557    0.7882
    -43.00   -0.8546    0.7591
    -42.00   -0.8529    0.7300
    -41.00   -0.8507    0.7010
    -40.00   -0.8480    0.6721
    -39.00   -0.8450    0.6432
    -38.00   -0.8417    0.6146
    -37.00   -0.8382    0.5861
    -36.00   -0.8346    0.5578
    -35.00   -0.8309    0.5297
    -34.00   -0.8274    0.5019
    -33.00   -0.8242    0.4743
    -32.00   -0.8214    0.4471
    -31.00   -0.8192    0.4201
    -30.00   -0.8180    0.3935
    -29.00   -0.8178    0.3673
    -28.00   -0.8192    0.3414
    -27.00   -0.8223    0.3158
    -26.00   -0.8276    0.2907
    -25.00   -0.8355    0.2660
    -24.00   -0.8465    0.2417
    -23.00   -0.8610    0.2179
    -22.00   -0.8794    0.1947
    -21.00   -0.9020    0.1721
    -20.00   -0.9288    0.1501
    -19.00   -0.9595    0.1291
    -18.00   -0.9930    0.1091
    -17.00   -1.0275    0.0905
    -16.00   -1.0602    0.0735
    -15.00   -1.0871    0.0586
    -14.00   -1.1037    0.0460
    -13.00   -1.1055    0.0358
    -12.00   -1.0889    0.0280
    -11.00   -1.0522    0.0225
    -10.00   -0.9836    0.0163
     -9.50   -0.9400    0.0158
     -9.00   -0.8955    0.0154
     -8.50   -0.8504    0.0150
     -8.00   -0.8050    0.0147
     -7.50   -0.7618    0.0144
     -7.00   -0.7201    0.0142
     -6.50   -0.6746    0.0140
     -6.00   -0.6261    0.0138
     -5.50   -0.5766    0.0137
     -5.00   -0.5263    0.0135
     -4.50   -0.4753    0.0134
     -4.00   -0.4237    0.0133
     -3.50   -0.3716    0.0132
     -3.00   -0.3192    0.0131
     -2.50   -0.2664    0.0130
     -2.00   -0.2134    0.0130
     -1.50   -0.1602    0.0129
     -1.00   -0.1069    0.0129
     -0.50   -0.0535    0.0129
      0.00   -0.0000    0.0129
      0.50    0.0535    0.0129
      1.00    0.1069    0.0129
      1.50    0.1602    0.0129
      2.00    0.2134    0.0130
      2.50    0.2665    0.0130
      3.00    0.3192    0.0131
      3.50    0.3717    0.0132
      4.00    0.4237    0.0133
      4.50    0.4754    0.0134
      5.00    0.5264    0.0135
      5.50    0.5768    0.0137
      6.00    0.6263    0.0138
      6.50    0.6749    0.0140
      7.00    0.7206    0.0142
      7.50    0.7624    0.0144
      8.00    0.8056    0.0147
      8.50    0.8510    0.0150
      9.00    0.8962    0.0154
      9.50    0.9409    0.0158
     10.00    0.9846    0.0163
     10.50    1.0275    0.0168
     11.00    1.0693    0.0174
     11.50    1.1097    0.0181
     12.00    1.1493    0.0189
     12.50    1.1873    0.0198
     13.00    1.2233    0.0208
     13.50    1.2572    0.0220
     14.00    1.2853    0.0237
     14.50    1.3055    0.0260
     15.00    1.3315    0.0280
     15.50    1.3549    0.0304
     16.00    1.3692    0.0336
     16.50    1.3752    0.0377
     17.00    1.3932    0.0410
     17.50    1.4057    0.0449
     18.00    1.4102    0.0497
     18.50    1.4046    0.0558
     19.00    1.3904    0.0630
     19.50    1.3770    0.0703
     20.00    1.3739    0.0766
     21.00    1.3452    0.1214
     22.00    1.3127    0.1430
     23.00    1.2784    0.1660
     24.00    1.2440    0.1903
     25.00    1.2107    0.2157
     26.00    1.1793    0.2419
     27.00    1.1504    0.2689
     28.00    1.1241    0.2964
     29.00    1.1006    0.3244
     30.00    1.0797    0.3527
     31.00    1.0613    0.3815
     32.00    1.0452    0.4105
     33.00    1.0312    0.4397
     34.00    1.0189    0.4692
     35.00    1.0082    0.4988
     36.00    0.9989    0.5286
     37.00    0.9906    0.5586
     38.00    0.9833    0.5886
     39.00    0.9767    0.6187
     40.00    0.9706    0.6489
     41.00    0.9649    0.6791
     42.00    0.9595    0.7093
     43.00    0.9543    0.7395
     44.00    0.9491    0.7697
     45.00    0.9438    0.7998
     46.00    0.9383    0.8298
     47.00    0.9327    0.8597
     48.00    0.9267    0.8894
     49.00    0.9204    0.9189
     50.00    0.9137    0.9483
     51.00    0.9065    0.9774
     52.00    0.8988    1.0062
     53.00    0.8906    1.0347
     54.00    0.8818    1.0629
     55.00    0.8724    1.0908
     56.00    0.8624    1.1182
     57.00    0.8518    1.1453
     58.00    0.8405    1.1719
     59.00    0.8285    1.1980
     60.00    0.8159    1.2236
     61.00    0.8025    1.2487
     62.00    0.7885    1.2732
     63.00    0.7738    1.2972
     64.00    0.7584    1.3205
     65.00    0.7423    1.3432
     66.00    0.7255    1.3652
     67.00    0.7080    1.3866
     68.00    0.6898    1.4072
     69.00    0.6709    1.4271
     70.00    0.6514    1.4462
     71.00    0.6312    1.4645
     72.00    0.6104    1.4821
     73.00    0.5890    1.4988
     74.00    0.5670    1.5147
     75.00    0.5443    1.5297
     76.00    0.5211    1.5438
     77.00    0.4974    1.5570
     78.00    0.4731    1.5694
     79.00    0.4483    1.5808
     80.00    0.4230    1.5913
     81.00    0.3972    1.6008
     82.00    0.3710    1.6094
     83.00    0.3444    1.6169
     84.00    0.3174    1.6236
     85.00    0.2901    1.6292
     86.00    0.2624    1.6338
     87.00    0.2344    1.6375
     88.00    0.2062    1.6401
     89.00    0.1777    1.6418
     90.00    0.1490    1.6424
     91.00    0.1201    1.6421
     92.00    0.0911    1.6407
     93.00    0.0619    1.6383
     94.00    0.0327    1.6349
     95.00    0.0035    1.6306
     96.00   -0.0258    1.6252
     97.00   -0.0550    1.6189
     98.00   -0.0842    1.6116
     99.00   -0.1133    1.6033
    100.00   -0.1422    1.5941
    101.00   -0.1710    1.5839
    102.00   -0.1996    1.5728
    103.00   -0.2279    1.5608
    104.00   -0.2559    1.5479
    105.00   -0.2837    1.5341
    106.00   -0.3110    1.5194
    107.00   -0.3380    1.5039
    108.00   -0.3646    1.4876
    109.00   -0.3907    1.4704
    110.00   -0.4269    1.4525
    111.00   -0.4518    1.4338
    112.00   -0.4761    1.4143
    113.00   -0.4998    1.3941
    114.00   -0.5230    1.3733
    115.00   -0.5454    1.3517
    116.00   -0.5672    1.3295
    117.00   -0.5883    1.3067
    118.00   -0.6086    1.2833
    119.00   -0.6282    1.2594
    120.00   -0.6470    1.2349
    121.00   -0.6649    1.2099
    122.00   -0.6820    1.1844
    123.00   -0.6982    1.1585
    124.00   -0.7135    1.1322
    125.00   -0.7279    1.1055
    126.00   -0.7413    1.0785
    127.00   -0.7537    1.0512
    128.00   -0.7652    1.0236
    129.00   -0.7756    0.9957
    130.00   -0.7851    0.9677
    131.00   -0.7934    0.9394
    132.00   -0.8008    0.9111
    133.00   -0.8070    0.8826
    134.00   -0.8122    0.8540
    135.00   -0.8163    0.8254
    136.00   -0.8193    0.7968
    137.00   -0.8212    0.7683
    138.00   -0.8220    0.7398
    139.00   -0.8217    0.7114
    140.00   -0.8203    0.6832
    141.00   -0.8177    0.6551
    142.00   -0.8141    0.6272
    143.00   -0.8094    0.5996
    144.00   -0.8035    0.5723
    145.00   -0.7966    0.5452
    146.00   -0.7887    0.5185
    147.00   -0.7796    0.4922
    148.00   -0.7696    0.4663
    149.00   -0.7585    0.4408
    150.00   -0.7464    0.4158
    151.00   -0.7334    0.3913
    152.00   -0.7194    0.3673
    153.00   -0.7045    0.3438
    154.00   -0.6888    0.3210
    155.00   -0.6723    0.2988
    156.00   -0.6550    0.2772
    157.00   -0.6370    0.2563
    158.00   -0.6184    0.2360
    159.00   -0.5994    0.2165
    160.00   -0.5799    0.1978
    161.00   -0.5602    0.1797
    162.00   -0.5404    0.1625
    163.00   -0.5209    0.1461
    164.00   -0.5018    0.1305
    165.00   -0.4837    0.1158
    166.00   -0.4671    0.1019
    167.00   -0.4526    0.0890
    168.00   -0.4412    0.0769
    169.00   -0.4338    0.0657
    170.00   -0.4312    0.0554
    171.00   -0.4334    0.0461
    172.00   -0.4379    0.0378
    173.00   -0.4385    0.0304
    174.00   -0.4251    0.0239
    175.00   -0.3891    0.0185
    176.00   -0.3295    0.0140
    177.00   -0.2538    0.0105
    178.00   -0.1706    0.0080
    179.00   -0.0854    0.0065
    180.00    0.0000    0.0060
    180.00    0.0000    0.0060
