AeroDyn airfoil file Created with QBlade v0.91b 32-Bit on 03.06.2016 at 15:22:48 Compatible with AeroDyn v13.0.
Polar "T1_Re3.700_M0.00_N9.0 360 M" on Foil "T1_Re3.700_M0.00_N9.0" :: generated by QBlade
1              Number of airfoil tables in this file
0              Table ID parameter
20.50          Stall angle (deg)
0              No longer used, enter zero
0              No longer used, enter zero
0              No longer used, enter zero
0.00           Angle of attack for zero Cn for linear Cn curve (deg)
5.93847        Cn slope for zero lift for linear Cn curve (1/rad)
0.9101         Cn at stall value for positive angle of attack for linear Cn curve
-0.9090        Cn at stall value for negative angle of attack for linear Cn curve
0.00           Angle of attack for minimum CD (deg)
0.0076         Minimum CD value
   -180.00    0.0000    0.0060
   -179.00    0.0831    0.0065
   -178.00    0.1662    0.0079
   -177.00    0.2494    0.0104
   -176.00    0.3325    0.0138
   -175.00    0.4156    0.0181
   -174.00    0.4987    0.0234
   -173.00    0.5819    0.0297
   -172.00    0.6650    0.0369
   -171.00    0.7481    0.0450
   -170.00    0.8268    0.0541
   -169.00    0.8760    0.0641
   -168.00    0.8577    0.0750
   -167.00    0.7752    0.0867
   -166.00    0.6815    0.0994
   -165.00    0.6141    0.1129
   -164.00    0.5770    0.1272
   -163.00    0.5618    0.1424
   -162.00    0.5602    0.1584
   -161.00    0.5666    0.1751
   -160.00    0.5777    0.1927
   -159.00    0.5915    0.2109
   -158.00    0.6067    0.2299
   -157.00    0.6226    0.2496
   -156.00    0.6386    0.2700
   -155.00    0.6544    0.2910
   -154.00    0.6699    0.3126
   -153.00    0.6848    0.3349
   -152.00    0.6990    0.3577
   -151.00    0.7124    0.3810
   -150.00    0.7250    0.4049
   -149.00    0.7367    0.4293
   -148.00    0.7474    0.4541
   -147.00    0.7572    0.4793
   -146.00    0.7661    0.5049
   -145.00    0.7739    0.5309
   -144.00    0.7806    0.5573
   -143.00    0.7863    0.5839
   -142.00    0.7910    0.6108
   -141.00    0.7946    0.6379
   -140.00    0.7971    0.6653
   -139.00    0.7985    0.6928
   -138.00    0.7989    0.7204
   -137.00    0.7982    0.7482
   -136.00    0.7964    0.7760
   -135.00    0.7935    0.8038
   -134.00    0.7896    0.8316
   -133.00    0.7846    0.8595
   -132.00    0.7785    0.8872
   -131.00    0.7714    0.9148
   -130.00    0.7633    0.9423
   -129.00    0.7541    0.9697
   -128.00    0.7440    0.9968
   -127.00    0.7329    1.0237
   -126.00    0.7208    1.0503
   -125.00    0.7078    1.0767
   -124.00    0.6938    1.1027
   -123.00    0.6789    1.1283
   -122.00    0.6632    1.1535
   -121.00    0.6466    1.1783
   -120.00    0.6292    1.2027
   -119.00    0.6109    1.2266
   -118.00    0.5919    1.2499
   -117.00    0.5721    1.2727
   -116.00    0.5516    1.2950
   -115.00    0.5304    1.3166
   -114.00    0.5086    1.3376
   -113.00    0.4861    1.3580
   -112.00    0.4630    1.3777
   -111.00    0.4393    1.3967
   -110.00    0.4151    1.4150
   -109.00    0.3904    1.4325
   -108.00    0.3653    1.4492
   -107.00    0.3397    1.4652
   -106.00    0.3137    1.4804
   -105.00    0.2873    1.4947
   -104.00    0.2606    1.5082
   -103.00    0.2337    1.5209
   -102.00    0.2064    1.5326
   -101.00    0.1787    1.5435
   -100.00    0.1511    1.5535
    -99.00    0.1233    1.5625
    -98.00    0.0954    1.5707
    -97.00    0.0674    1.5779
    -96.00    0.0393    1.5842
    -95.00    0.0113    1.5895
    -94.00   -0.0168    1.5938
    -93.00   -0.0447    1.5972
    -92.00   -0.0726    1.5996
    -91.00   -0.1003    1.6011
    -90.00   -0.1279    1.6016
    -89.00   -0.1553    1.6011
    -88.00   -0.1825    1.5996
    -87.00   -0.2094    1.5972
    -86.00   -0.2360    1.5938
    -85.00   -0.2623    1.5895
    -84.00   -0.2883    1.5841
    -83.00   -0.3138    1.5779
    -82.00   -0.3390    1.5707
    -81.00   -0.3637    1.5625
    -80.00   -0.3879    1.5535
    -79.00   -0.4117    1.5435
    -78.00   -0.4349    1.5326
    -77.00   -0.4576    1.5208
    -76.00   -0.4798    1.5082
    -75.00   -0.5013    1.4947
    -74.00   -0.5222    1.4803
    -73.00   -0.5425    1.4652
    -72.00   -0.5621    1.4492
    -71.00   -0.5811    1.4324
    -70.00   -0.5994    1.4149
    -69.00   -0.6169    1.3966
    -68.00   -0.6337    1.3776
    -67.00   -0.6498    1.3579
    -66.00   -0.6651    1.3376
    -65.00   -0.6796    1.3165
    -64.00   -0.6934    1.2949
    -63.00   -0.7063    1.2726
    -62.00   -0.7184    1.2498
    -61.00   -0.7297    1.2265
    -60.00   -0.7402    1.2026
    -59.00   -0.7499    1.1782
    -58.00   -0.7586    1.1534
    -57.00   -0.7666    1.1282
    -56.00   -0.7736    1.1025
    -55.00   -0.7799    1.0765
    -54.00   -0.7852    1.0502
    -53.00   -0.7897    1.0235
    -52.00   -0.7933    0.9966
    -51.00   -0.7960    0.9695
    -50.00   -0.7979    0.9421
    -49.00   -0.7989    0.9146
    -48.00   -0.7990    0.8869
    -47.00   -0.7983    0.8592
    -46.00   -0.7968    0.8313
    -45.00   -0.7943    0.8035
    -44.00   -0.7911    0.7756
    -43.00   -0.7870    0.7478
    -42.00   -0.7821    0.7200
    -41.00   -0.7763    0.6923
    -40.00   -0.7698    0.6648
    -39.00   -0.7625    0.6374
    -38.00   -0.7545    0.6102
    -37.00   -0.7457    0.5833
    -36.00   -0.7361    0.5566
    -35.00   -0.7259    0.5302
    -34.00   -0.7150    0.5041
    -33.00   -0.7034    0.4784
    -32.00   -0.6913    0.4530
    -31.00   -0.6786    0.4281
    -30.00   -0.6654    0.4036
    -29.00   -0.6517    0.3795
    -28.00   -0.6378    0.3560
    -27.00   -0.6236    0.3329
    -26.00   -0.6094    0.3103
    -25.00   -0.5953    0.2883
    -24.00   -0.5817    0.2668
    -23.00   -0.5689    0.2458
    -22.00   -0.5577    0.2254
    -21.00   -0.5488    0.2054
    -20.00   -0.5438    0.1857
    -19.00   -0.5448    0.1663
    -18.00   -0.5554    0.1470
    -17.00   -0.5810    0.1275
    -16.00   -0.6297    0.1073
    -15.00   -0.7112    0.0863
    -14.00   -0.8305    0.0646
    -13.00   -0.9694    0.0442
    -12.00   -1.0740    0.0288
    -11.00   -1.0926    0.0207
    -10.00   -0.9599    0.0117
     -9.50   -0.9198    0.0110
     -9.00   -0.8743    0.0106
     -8.50   -0.8266    0.0102
     -8.00   -0.7828    0.0098
     -7.50   -0.7345    0.0095
     -7.00   -0.6870    0.0092
     -6.50   -0.6401    0.0089
     -6.00   -0.5900    0.0087
     -5.50   -0.5434    0.0084
     -5.00   -0.4934    0.0083
     -4.50   -0.4504    0.0081
     -4.00   -0.4075    0.0080
     -3.50   -0.3587    0.0080
     -3.00   -0.3097    0.0078
     -2.50   -0.2584    0.0078
     -2.00   -0.2078    0.0077
     -1.50   -0.1559    0.0077
     -1.00   -0.1042    0.0076
     -0.50   -0.0521    0.0077
      0.00   -0.0000    0.0076
      0.50    0.0521    0.0077
      1.00    0.1042    0.0076
      1.50    0.1559    0.0077
      2.00    0.2078    0.0077
      2.50    0.2585    0.0078
      3.00    0.3098    0.0078
      3.50    0.3589    0.0080
      4.00    0.4078    0.0080
      4.50    0.4507    0.0081
      5.00    0.4938    0.0083
      5.50    0.5438    0.0084
      6.00    0.5905    0.0087
      6.50    0.6407    0.0089
      7.00    0.6876    0.0092
      7.50    0.7352    0.0095
      8.00    0.7836    0.0098
      8.50    0.8275    0.0102
      9.00    0.8754    0.0106
      9.50    0.9210    0.0110
     10.00    0.9613    0.0117
     10.50    1.0081    0.0122
     11.00    1.0490    0.0129
     11.50    1.0878    0.0137
     12.00    1.1298    0.0144
     12.50    1.1669    0.0154
     13.00    1.1991    0.0167
     13.50    1.2361    0.0178
     14.00    1.2704    0.0190
     14.50    1.2923    0.0208
     15.00    1.3147    0.0228
     15.50    1.3551    0.0244
     16.00    1.3931    0.0267
     16.50    1.4091    0.0296
     17.00    1.4232    0.0326
     17.50    1.4452    0.0353
     18.00    1.4675    0.0380
     18.50    1.4779    0.0418
     19.00    1.4776    0.0465
     19.50    1.4764    0.0515
     20.00    1.4817    0.0561
     20.50    1.4946    0.0600
     21.00    1.4921    0.0654
     21.50    1.4794    0.0719
     22.00    1.4602    0.0792
     23.00    1.4408    0.1399
     24.00    1.4177    0.1611
     25.00    1.3920    0.1838
     26.00    1.3649    0.2077
     27.00    1.3373    0.2327
     28.00    1.3099    0.2587
     29.00    1.2832    0.2855
     30.00    1.2577    0.3129
     31.00    1.2335    0.3409
     32.00    1.2108    0.3695
     33.00    1.1896    0.3984
     34.00    1.1699    0.4276
     35.00    1.1516    0.4572
     36.00    1.1346    0.4869
     37.00    1.1189    0.5169
     38.00    1.1043    0.5470
     39.00    1.0906    0.5771
     40.00    1.0778    0.6074
     41.00    1.0656    0.6377
     42.00    1.0541    0.6680
     43.00    1.0430    0.6982
     44.00    1.0322    0.7284
     45.00    1.0217    0.7585
     46.00    1.0114    0.7885
     47.00    1.0011    0.8184
     48.00    0.9908    0.8481
     49.00    0.9805    0.8775
     50.00    0.9699    0.9068
     51.00    0.9592    0.9358
     52.00    0.9482    0.9645
     53.00    0.9368    0.9929
     54.00    0.9252    1.0209
     55.00    0.9131    1.0486
     56.00    0.9005    1.0758
     57.00    0.8875    1.1027
     58.00    0.8741    1.1291
     59.00    0.8601    1.1550
     60.00    0.8455    1.1804
     61.00    0.8305    1.2052
     62.00    0.8148    1.2295
     63.00    0.7986    1.2533
     64.00    0.7818    1.2763
     65.00    0.7645    1.2988
     66.00    0.7465    1.3206
     67.00    0.7280    1.3417
     68.00    0.7088    1.3621
     69.00    0.6891    1.3818
     70.00    0.6688    1.4007
     71.00    0.6479    1.4188
     72.00    0.6265    1.4362
     73.00    0.6045    1.4527
     74.00    0.5820    1.4684
     75.00    0.5589    1.4833
     76.00    0.5354    1.4973
     77.00    0.5113    1.5104
     78.00    0.4868    1.5226
     79.00    0.4618    1.5339
     80.00    0.4364    1.5443
     81.00    0.4105    1.5538
     82.00    0.3843    1.5623
     83.00    0.3577    1.5699
     84.00    0.3307    1.5765
     85.00    0.3034    1.5821
     86.00    0.2758    1.5868
     87.00    0.2480    1.5905
     88.00    0.2199    1.5932
     89.00    0.1916    1.5950
     90.00    0.1631    1.5957
     91.00    0.1345    1.5955
     92.00    0.1058    1.5943
     93.00    0.0769    1.5921
     94.00    0.0480    1.5889
     95.00    0.0191    1.5848
     96.00   -0.0098    1.5797
     97.00   -0.0387    1.5736
     98.00   -0.0675    1.5666
     99.00   -0.0962    1.5586
    100.00   -0.1247    1.5498
    101.00   -0.1531    1.5400
    102.00   -0.2064    1.5292
    103.00   -0.2337    1.5176
    104.00   -0.2607    1.5051
    105.00   -0.2873    1.4918
    106.00   -0.3137    1.4776
    107.00   -0.3397    1.4625
    108.00   -0.3653    1.4467
    109.00   -0.3904    1.4301
    110.00   -0.4151    1.4127
    111.00   -0.4393    1.3945
    112.00   -0.4630    1.3756
    113.00   -0.4861    1.3560
    114.00   -0.5086    1.3358
    115.00   -0.5304    1.3148
    116.00   -0.5516    1.2933
    117.00   -0.5721    1.2711
    118.00   -0.5919    1.2484
    119.00   -0.6109    1.2251
    120.00   -0.6292    1.2013
    121.00   -0.6466    1.1771
    122.00   -0.6632    1.1523
    123.00   -0.6789    1.1272
    124.00   -0.6938    1.1016
    125.00   -0.7078    1.0756
    126.00   -0.7208    1.0494
    127.00   -0.7329    1.0228
    128.00   -0.7440    0.9960
    129.00   -0.7542    0.9689
    130.00   -0.7633    0.9416
    131.00   -0.7714    0.9141
    132.00   -0.7785    0.8865
    133.00   -0.7846    0.8588
    134.00   -0.7896    0.8311
    135.00   -0.7935    0.8033
    136.00   -0.7964    0.7755
    137.00   -0.7982    0.7477
    138.00   -0.7989    0.7200
    139.00   -0.7986    0.6924
    140.00   -0.7971    0.6649
    141.00   -0.7946    0.6376
    142.00   -0.7910    0.6105
    143.00   -0.7864    0.5836
    144.00   -0.7806    0.5570
    145.00   -0.7739    0.5307
    146.00   -0.7661    0.5047
    147.00   -0.7573    0.4791
    148.00   -0.7475    0.4539
    149.00   -0.7367    0.4291
    150.00   -0.7250    0.4047
    151.00   -0.7124    0.3809
    152.00   -0.6990    0.3576
    153.00   -0.6849    0.3348
    154.00   -0.6700    0.3125
    155.00   -0.6546    0.2909
    156.00   -0.6388    0.2699
    157.00   -0.6228    0.2495
    158.00   -0.6070    0.2299
    159.00   -0.5918    0.2109
    160.00   -0.5781    0.1926
    161.00   -0.5672    0.1751
    162.00   -0.5609    0.1583
    163.00   -0.5628    0.1424
    164.00   -0.5783    0.1272
    165.00   -0.6158    0.1129
    166.00   -0.6835    0.0994
    167.00   -0.7770    0.0867
    168.00   -0.8587    0.0750
    169.00   -0.8762    0.0641
    170.00   -0.8268    0.0541
    171.00   -0.7481    0.0451
    172.00   -0.6650    0.0369
    173.00   -0.5819    0.0297
    174.00   -0.4987    0.0235
    175.00   -0.4156    0.0181
    176.00   -0.3325    0.0138
    177.00   -0.2494    0.0104
    178.00   -0.1662    0.0080
    179.00   -0.0831    0.0065
    180.00    0.0000    0.0060
    180.00    0.0000    0.0060
