AeroDyn airfoil file Created with QBlade v0.91b 32-Bit on 03.06.2016 at 15:22:48 Compatible with AeroDyn v13.0.
Polar "T1_Re0.400_M0.00_N9.0 360 M" on Foil "T1_Re0.400_M0.00_N9.0" :: generated by QBlade
1              Number of airfoil tables in this file
0              Table ID parameter
19.50          Stall angle (deg)
0              No longer used, enter zero
0              No longer used, enter zero
0              No longer used, enter zero
-0.00          Angle of attack for zero Cn for linear Cn curve (deg)
5.02258        Cn slope for zero lift for linear Cn curve (1/rad)
-0.7776        Cn at stall value for positive angle of attack for linear Cn curve
-0.9261        Cn at stall value for negative angle of attack for linear Cn curve
0.00           Angle of attack for minimum CD (deg)
0.0127         Minimum CD value
   -180.00   -0.0000    0.0060
   -179.00    0.0676    0.0065
   -178.00    0.1296    0.0079
   -177.00    0.1826    0.0104
   -176.00    0.2246    0.0138
   -175.00    0.2565    0.0181
   -174.00    0.2808    0.0234
   -173.00    0.3007    0.0297
   -172.00    0.3189    0.0369
   -171.00    0.3368    0.0450
   -170.00    0.3553    0.0541
   -169.00    0.3745    0.0641
   -168.00    0.3944    0.0750
   -167.00    0.4150    0.0867
   -166.00    0.4360    0.0994
   -165.00    0.4573    0.1129
   -164.00    0.4786    0.1272
   -163.00    0.4999    0.1424
   -162.00    0.5209    0.1584
   -161.00    0.5416    0.1751
   -160.00    0.5619    0.1927
   -159.00    0.5817    0.2109
   -158.00    0.6009    0.2299
   -157.00    0.6195    0.2496
   -156.00    0.6373    0.2700
   -155.00    0.6544    0.2910
   -154.00    0.6707    0.3126
   -153.00    0.6862    0.3349
   -152.00    0.7007    0.3577
   -151.00    0.7144    0.3810
   -150.00    0.7272    0.4049
   -149.00    0.7390    0.4293
   -148.00    0.7498    0.4541
   -147.00    0.7596    0.4793
   -146.00    0.7684    0.5049
   -145.00    0.7761    0.5309
   -144.00    0.7829    0.5573
   -143.00    0.7885    0.5839
   -142.00    0.7931    0.6108
   -141.00    0.7966    0.6379
   -140.00    0.7991    0.6653
   -139.00    0.8005    0.6928
   -138.00    0.8008    0.7204
   -137.00    0.8000    0.7482
   -136.00    0.7981    0.7760
   -135.00    0.7952    0.8038
   -134.00    0.7912    0.8316
   -133.00    0.7861    0.8595
   -132.00    0.7800    0.8872
   -131.00    0.7728    0.9148
   -130.00    0.7647    0.9423
   -129.00    0.7555    0.9697
   -128.00    0.7453    0.9968
   -127.00    0.7341    1.0237
   -126.00    0.7220    1.0503
   -125.00    0.7089    1.0767
   -124.00    0.6949    1.1027
   -123.00    0.6800    1.1283
   -122.00    0.6642    1.1535
   -121.00    0.6476    1.1783
   -120.00    0.6301    1.2027
   -119.00    0.6119    1.2266
   -118.00    0.5928    1.2499
   -117.00    0.5730    1.2727
   -116.00    0.5525    1.2950
   -115.00    0.5313    1.3166
   -114.00    0.5094    1.3376
   -113.00    0.4858    1.3580
   -112.00    0.4627    1.3777
   -111.00    0.4390    1.3967
   -110.00    0.4148    1.4149
   -109.00    0.3902    1.4325
   -108.00    0.3650    1.4492
   -107.00    0.3394    1.4652
   -106.00    0.3134    1.4804
   -105.00    0.2871    1.4947
   -104.00    0.2604    1.5082
   -103.00    0.2334    1.5209
   -102.00    0.2062    1.5326
   -101.00    0.1787    1.5435
   -100.00    0.1511    1.5535
    -99.00    0.1233    1.5625
    -98.00    0.0953    1.5707
    -97.00    0.0673    1.5779
    -96.00    0.0393    1.5842
    -95.00    0.0112    1.5895
    -94.00   -0.0168    1.5938
    -93.00   -0.0448    1.5972
    -92.00   -0.0726    1.5996
    -91.00   -0.1004    1.6011
    -90.00   -0.1280    1.6016
    -89.00   -0.1554    1.6011
    -88.00   -0.1825    1.5996
    -87.00   -0.2094    1.5972
    -86.00   -0.2360    1.5938
    -85.00   -0.2623    1.5894
    -84.00   -0.2883    1.5841
    -83.00   -0.3139    1.5779
    -82.00   -0.3390    1.5707
    -81.00   -0.3637    1.5625
    -80.00   -0.3880    1.5534
    -79.00   -0.4117    1.5435
    -78.00   -0.4350    1.5326
    -77.00   -0.4577    1.5208
    -76.00   -0.4798    1.5082
    -75.00   -0.5013    1.4946
    -74.00   -0.5223    1.4803
    -73.00   -0.5426    1.4651
    -72.00   -0.5622    1.4492
    -71.00   -0.5812    1.4324
    -70.00   -0.5994    1.4149
    -69.00   -0.6170    1.3966
    -68.00   -0.6338    1.3776
    -67.00   -0.6499    1.3579
    -66.00   -0.6652    1.3375
    -65.00   -0.6797    1.3165
    -64.00   -0.6934    1.2948
    -63.00   -0.7064    1.2726
    -62.00   -0.7185    1.2498
    -61.00   -0.7298    1.2264
    -60.00   -0.7403    1.2025
    -59.00   -0.7499    1.1782
    -58.00   -0.7587    1.1533
    -57.00   -0.7667    1.1281
    -56.00   -0.7738    1.1024
    -55.00   -0.7800    1.0764
    -54.00   -0.7853    1.0501
    -53.00   -0.7898    1.0234
    -52.00   -0.7934    0.9965
    -51.00   -0.7962    0.9694
    -50.00   -0.7981    0.9420
    -49.00   -0.7991    0.9145
    -48.00   -0.7992    0.8868
    -47.00   -0.7985    0.8591
    -46.00   -0.7970    0.8312
    -45.00   -0.7946    0.8033
    -44.00   -0.7913    0.7755
    -43.00   -0.7872    0.7476
    -42.00   -0.7824    0.7198
    -41.00   -0.7767    0.6921
    -40.00   -0.7702    0.6646
    -39.00   -0.7629    0.6372
    -38.00   -0.7549    0.6100
    -37.00   -0.7461    0.5830
    -36.00   -0.7366    0.5563
    -35.00   -0.7265    0.5299
    -34.00   -0.7156    0.5037
    -33.00   -0.7042    0.4780
    -32.00   -0.6921    0.4526
    -31.00   -0.6795    0.4276
    -30.00   -0.6665    0.4030
    -29.00   -0.6530    0.3789
    -28.00   -0.6393    0.3553
    -27.00   -0.6254    0.3321
    -26.00   -0.6115    0.3094
    -25.00   -0.5979    0.2872
    -24.00   -0.5848    0.2655
    -23.00   -0.5728    0.2443
    -22.00   -0.5626    0.2235
    -21.00   -0.5550    0.2031
    -20.00   -0.5518    0.1829
    -19.00   -0.5551    0.1628
    -18.00   -0.5684    0.1426
    -17.00   -0.5968    0.1219
    -16.00   -0.6466    0.1004
    -15.00   -0.7225    0.0783
    -14.00   -0.8195    0.0566
    -13.00   -0.9117    0.0380
    -12.00   -0.9583    0.0256
    -11.00   -0.9396    0.0197
    -10.00   -0.7859    0.0209
     -9.50   -0.7537    0.0195
     -9.00   -0.7195    0.0185
     -8.50   -0.6869    0.0175
     -8.00   -0.6528    0.0167
     -7.50   -0.6141    0.0161
     -7.00   -0.5780    0.0154
     -6.50   -0.5370    0.0150
     -6.00   -0.4987    0.0145
     -5.50   -0.4565    0.0142
     -5.00   -0.4163    0.0138
     -4.50   -0.3762    0.0135
     -4.00   -0.3370    0.0133
     -3.50   -0.3012    0.0132
     -3.00   -0.2603    0.0131
     -2.50   -0.2185    0.0130
     -2.00   -0.1753    0.0129
     -1.50   -0.1327    0.0128
     -1.00   -0.0879    0.0128
     -0.50   -0.0445    0.0128
      0.00    0.0000    0.0127
      0.50    0.0445    0.0128
      1.00    0.0880    0.0128
      1.50    0.1327    0.0128
      2.00    0.1754    0.0129
      2.50    0.2186    0.0130
      3.00    0.2604    0.0131
      3.50    0.3014    0.0132
      4.00    0.3373    0.0133
      4.50    0.3765    0.0135
      5.00    0.4166    0.0138
      5.50    0.4570    0.0142
      6.00    0.4992    0.0145
      6.50    0.5376    0.0150
      7.00    0.5788    0.0154
      7.50    0.6150    0.0161
      8.00    0.6538    0.0167
      8.50    0.6880    0.0175
      9.00    0.7207    0.0185
      9.50    0.7551    0.0195
     10.00    0.7874    0.0209
     10.50    0.8357    0.0222
     11.00    0.8917    0.0240
     11.50    0.9499    0.0259
     12.00    1.0074    0.0280
     12.50    1.0565    0.0305
     13.00    1.1123    0.0328
     13.50    1.0994    0.0346
     14.00    1.0890    0.0369
     14.50    1.0922    0.0393
     15.00    1.0978    0.0421
     15.50    1.1015    0.0456
     16.00    1.1127    0.0488
     16.50    1.1226    0.0527
     17.00    1.1284    0.0571
     17.50    1.1339    0.0614
     18.00    1.1406    0.0660
     18.50    1.1433    0.0712
     19.00    1.1440    0.0768
     19.50    1.1548    0.0808
     20.00    1.1505    0.0872
     20.50    1.1423    0.0941
     21.00    1.1384    0.1005
     21.50    1.1447    0.1054
     22.00    1.1394    0.1120
     23.00    1.1313    0.1593
     24.00    1.1215    0.1806
     25.00    1.1108    0.2030
     26.00    1.0996    0.2265
     27.00    1.0883    0.2509
     28.00    1.0773    0.2761
     29.00    1.0667    0.3020
     30.00    1.0567    0.3286
     31.00    1.0473    0.3557
     32.00    1.0385    0.3832
     33.00    1.0304    0.4112
     34.00    1.0229    0.4396
     35.00    1.0159    0.4682
     36.00    1.0094    0.4971
     37.00    1.0033    0.5263
     38.00    0.9975    0.5556
     39.00    0.9919    0.5851
     40.00    0.9865    0.6147
     41.00    0.9812    0.6444
     42.00    0.9758    0.6741
     43.00    0.9704    0.7039
     44.00    0.9649    0.7336
     45.00    0.9592    0.7633
     46.00    0.9533    0.7929
     47.00    0.9470    0.8223
     48.00    0.9404    0.8517
     49.00    0.9334    0.8808
     50.00    0.9260    0.9098
     51.00    0.9181    0.9385
     52.00    0.9098    0.9670
     53.00    0.9009    0.9951
     54.00    0.8914    1.0230
     55.00    0.8814    1.0505
     56.00    0.8708    1.0776
     57.00    0.8596    1.1043
     58.00    0.8478    1.1305
     59.00    0.8353    1.1563
     60.00    0.8222    1.1815
     61.00    0.8085    1.2063
     62.00    0.7941    1.2305
     63.00    0.7790    1.2541
     64.00    0.7633    1.2771
     65.00    0.7469    1.2995
     66.00    0.7299    1.3212
     67.00    0.7122    1.3423
     68.00    0.6939    1.3626
     69.00    0.6750    1.3822
     70.00    0.6554    1.4011
     71.00    0.6352    1.4192
     72.00    0.6144    1.4365
     73.00    0.5930    1.4530
     74.00    0.5710    1.4686
     75.00    0.5485    1.4835
     76.00    0.5254    1.4974
     77.00    0.5018    1.5105
     78.00    0.4777    1.5227
     79.00    0.4532    1.5340
     80.00    0.4281    1.5444
     81.00    0.4026    1.5538
     82.00    0.3767    1.5623
     83.00    0.3505    1.5699
     84.00    0.3238    1.5765
     85.00    0.2968    1.5821
     86.00    0.2695    1.5868
     87.00    0.2419    1.5905
     88.00    0.2141    1.5932
     89.00    0.1860    1.5949
     90.00    0.1578    1.5957
     91.00    0.1294    1.5954
     92.00    0.1008    1.5942
     93.00    0.0722    1.5920
     94.00    0.0435    1.5888
     95.00    0.0147    1.5847
     96.00   -0.0140    1.5796
     97.00   -0.0427    1.5735
     98.00   -0.0713    1.5665
     99.00   -0.0999    1.5586
    100.00   -0.1283    1.5497
    101.00   -0.1565    1.5399
    102.00   -0.1845    1.5292
    103.00   -0.2123    1.5175
    104.00   -0.2398    1.5051
    105.00   -0.2670    1.4917
    106.00   -0.2939    1.4775
    107.00   -0.3203    1.4625
    108.00   -0.3464    1.4466
    109.00   -0.3720    1.4300
    110.00   -0.3971    1.4126
    111.00   -0.4217    1.3944
    112.00   -0.4458    1.3755
    113.00   -0.4693    1.3560
    114.00   -0.5094    1.3357
    115.00   -0.5313    1.3148
    116.00   -0.5525    1.2932
    117.00   -0.5730    1.2711
    118.00   -0.5928    1.2484
    119.00   -0.6119    1.2251
    120.00   -0.6302    1.2013
    121.00   -0.6476    1.1770
    122.00   -0.6643    1.1523
    123.00   -0.6801    1.1271
    124.00   -0.6950    1.1015
    125.00   -0.7090    1.0756
    126.00   -0.7220    1.0493
    127.00   -0.7342    1.0228
    128.00   -0.7453    0.9959
    129.00   -0.7555    0.9688
    130.00   -0.7647    0.9416
    131.00   -0.7729    0.9141
    132.00   -0.7801    0.8865
    133.00   -0.7862    0.8588
    134.00   -0.7912    0.8310
    135.00   -0.7952    0.8032
    136.00   -0.7982    0.7754
    137.00   -0.8000    0.7477
    138.00   -0.8008    0.7200
    139.00   -0.8005    0.6923
    140.00   -0.7992    0.6649
    141.00   -0.7967    0.6376
    142.00   -0.7932    0.6105
    143.00   -0.7886    0.5836
    144.00   -0.7830    0.5570
    145.00   -0.7762    0.5307
    146.00   -0.7685    0.5047
    147.00   -0.7597    0.4791
    148.00   -0.7499    0.4539
    149.00   -0.7391    0.4291
    150.00   -0.7273    0.4047
    151.00   -0.7146    0.3809
    152.00   -0.7009    0.3575
    153.00   -0.6863    0.3348
    154.00   -0.6709    0.3125
    155.00   -0.6546    0.2909
    156.00   -0.6375    0.2699
    157.00   -0.6197    0.2495
    158.00   -0.6011    0.2299
    159.00   -0.5819    0.2109
    160.00   -0.5621    0.1926
    161.00   -0.5419    0.1751
    162.00   -0.5212    0.1583
    163.00   -0.5001    0.1424
    164.00   -0.4789    0.1272
    165.00   -0.4575    0.1129
    166.00   -0.4363    0.0994
    167.00   -0.4152    0.0867
    168.00   -0.3946    0.0750
    169.00   -0.3746    0.0641
    170.00   -0.3553    0.0541
    171.00   -0.3367    0.0451
    172.00   -0.3185    0.0369
    173.00   -0.3001    0.0297
    174.00   -0.2799    0.0235
    175.00   -0.2554    0.0181
    176.00   -0.2236    0.0138
    177.00   -0.1818    0.0104
    178.00   -0.1291    0.0080
    179.00   -0.0674    0.0065
    180.00   -0.0000    0.0060
    180.00   -0.0000    0.0060
