AeroDyn airfoil file Created with QBlade v0.91b 32-Bit on 03.06.2016 at 15:00:53 Compatible with AeroDyn v13.0.
Polar "T1_Re3.700_M0.00_N9.0 360 M" on Foil "T1_Re3.700_M0.00_N9.0" :: generated by QBlade
1              Number of airfoil tables in this file
0              Table ID parameter
19.50          Stall angle (deg)
0              No longer used, enter zero
0              No longer used, enter zero
0              No longer used, enter zero
-0.00          Angle of attack for zero Cn for linear Cn curve (deg)
6.45852        Cn slope for zero lift for linear Cn curve (1/rad)
1.1564         Cn at stall value for positive angle of attack for linear Cn curve
-1.0968        Cn at stall value for negative angle of attack for linear Cn curve
0.50           Angle of attack for minimum CD (deg)
0.0054         Minimum CD value
   -180.00   -0.0000    0.0060
   -179.00    0.0903    0.0065
   -178.00    0.1805    0.0081
   -177.00    0.2708    0.0107
   -176.00    0.3611    0.0143
   -175.00    0.4513    0.0189
   -174.00    0.5416    0.0246
   -173.00    0.6318    0.0312
   -172.00    0.7208    0.0389
   -171.00    0.7957    0.0475
   -170.00    0.8268    0.0572
   -169.00    0.7938    0.0678
   -168.00    0.7201    0.0794
   -167.00    0.6485    0.0919
   -166.00    0.6001    0.1054
   -165.00    0.5750    0.1197
   -164.00    0.5668    0.1350
   -163.00    0.5694    0.1511
   -162.00    0.5788    0.1681
   -161.00    0.5922    0.1860
   -160.00    0.6080    0.2046
   -159.00    0.6251    0.2240
   -158.00    0.6429    0.2443
   -157.00    0.6608    0.2652
   -156.00    0.6784    0.2869
   -155.00    0.6957    0.3092
   -154.00    0.7125    0.3323
   -153.00    0.7285    0.3559
   -152.00    0.7437    0.3802
   -151.00    0.7581    0.4051
   -150.00    0.7715    0.4305
   -149.00    0.7840    0.4564
   -148.00    0.7955    0.4828
   -147.00    0.8059    0.5096
   -146.00    0.8153    0.5369
   -145.00    0.8236    0.5646
   -144.00    0.8308    0.5926
   -143.00    0.8369    0.6209
   -142.00    0.8418    0.6495
   -141.00    0.8457    0.6784
   -140.00    0.8483    0.7075
   -139.00    0.8499    0.7368
   -138.00    0.8502    0.7662
   -137.00    0.8495    0.7957
   -136.00    0.8475    0.8253
   -135.00    0.8445    0.8549
   -134.00    0.8403    0.8845
   -133.00    0.8349    0.9141
   -132.00    0.8285    0.9436
   -131.00    0.8209    0.9730
   -130.00    0.8123    1.0023
   -129.00    0.8026    1.0314
   -128.00    0.7918    1.0603
   -127.00    0.7799    1.0889
   -126.00    0.7671    1.1172
   -125.00    0.7532    1.1452
   -124.00    0.7383    1.1729
   -123.00    0.7225    1.2002
   -122.00    0.7058    1.2270
   -121.00    0.6881    1.2534
   -120.00    0.6695    1.2793
   -119.00    0.6501    1.3047
   -118.00    0.6299    1.3296
   -117.00    0.6088    1.3539
   -116.00    0.5870    1.3775
   -115.00    0.5645    1.4006
   -114.00    0.5412    1.4229
   -113.00    0.5173    1.4446
   -112.00    0.4927    1.4655
   -111.00    0.4675    1.4858
   -110.00    0.4418    1.5052
   -109.00    0.4155    1.5238
   -108.00    0.3887    1.5417
   -107.00    0.3615    1.5587
   -106.00    0.3338    1.5748
   -105.00    0.3058    1.5901
   -104.00    0.2774    1.6044
   -103.00    0.2484    1.6179
   -102.00    0.2194    1.6304
   -101.00    0.1902    1.6420
   -100.00    0.1608    1.6526
    -99.00    0.1312    1.6622
    -98.00    0.1015    1.6709
    -97.00    0.0717    1.6786
    -96.00    0.0419    1.6852
    -95.00    0.0120    1.6909
    -94.00   -0.0178    1.6955
    -93.00   -0.0476    1.6991
    -92.00   -0.0772    1.7017
    -91.00   -0.1068    1.7033
    -90.00   -0.1361    1.7038
    -89.00   -0.1653    1.7033
    -88.00   -0.1942    1.7017
    -87.00   -0.2228    1.6991
    -86.00   -0.2511    1.6955
    -85.00   -0.2791    1.6909
    -84.00   -0.3067    1.6852
    -83.00   -0.3339    1.6786
    -82.00   -0.3607    1.6709
    -81.00   -0.3870    1.6622
    -80.00   -0.4128    1.6526
    -79.00   -0.4380    1.6419
    -78.00   -0.4628    1.6304
    -77.00   -0.4869    1.6178
    -76.00   -0.5105    1.6044
    -75.00   -0.5334    1.5900
    -74.00   -0.5556    1.5748
    -73.00   -0.5772    1.5586
    -72.00   -0.5981    1.5416
    -71.00   -0.6183    1.5238
    -70.00   -0.6377    1.5051
    -69.00   -0.6564    1.4857
    -68.00   -0.6743    1.4655
    -67.00   -0.6914    1.4445
    -66.00   -0.7076    1.4228
    -65.00   -0.7231    1.4005
    -64.00   -0.7377    1.3774
    -63.00   -0.7515    1.3538
    -62.00   -0.7644    1.3295
    -61.00   -0.7764    1.3046
    -60.00   -0.7876    1.2792
    -59.00   -0.7978    1.2533
    -58.00   -0.8072    1.2269
    -57.00   -0.8156    1.2000
    -56.00   -0.8231    1.1728
    -55.00   -0.8297    1.1451
    -54.00   -0.8354    1.1171
    -53.00   -0.8402    1.0887
    -52.00   -0.8440    1.0601
    -51.00   -0.8469    1.0312
    -50.00   -0.8489    1.0021
    -49.00   -0.8500    0.9728
    -48.00   -0.8501    0.9434
    -47.00   -0.8493    0.9138
    -46.00   -0.8476    0.8842
    -45.00   -0.8451    0.8546
    -44.00   -0.8416    0.8249
    -43.00   -0.8372    0.7953
    -42.00   -0.8320    0.7658
    -41.00   -0.8259    0.7363
    -40.00   -0.8189    0.7070
    -39.00   -0.8111    0.6779
    -38.00   -0.8025    0.6490
    -37.00   -0.7931    0.6203
    -36.00   -0.7829    0.5919
    -35.00   -0.7720    0.5638
    -34.00   -0.7604    0.5360
    -33.00   -0.7481    0.5087
    -32.00   -0.7351    0.4817
    -31.00   -0.7215    0.4552
    -30.00   -0.7074    0.4291
    -29.00   -0.6929    0.4035
    -28.00   -0.6780    0.3784
    -27.00   -0.6629    0.3539
    -26.00   -0.6477    0.3299
    -25.00   -0.6326    0.3065
    -24.00   -0.6181    0.2836
    -23.00   -0.6046    0.2612
    -22.00   -0.5927    0.2394
    -21.00   -0.5836    0.2180
    -20.00   -0.5789    0.1970
    -19.00   -0.5812    0.1762
    -18.00   -0.5950    0.1553
    -17.00   -0.6269    0.1339
    -16.00   -0.6872    0.1115
    -15.00   -0.7884    0.0876
    -14.00   -0.9348    0.0626
    -13.00   -1.0979    0.0394
    -12.00   -1.2056    0.0231
    -11.00   -1.2060    0.0155
    -10.00   -1.1119    0.0106
     -9.50   -1.0492    0.0100
     -9.00   -0.9884    0.0095
     -8.50   -0.9319    0.0091
     -8.00   -0.8786    0.0086
     -7.50   -0.8261    0.0083
     -7.00   -0.7738    0.0079
     -6.50   -0.7209    0.0076
     -6.00   -0.6671    0.0072
     -5.50   -0.6127    0.0070
     -5.00   -0.5580    0.0067
     -4.50   -0.5035    0.0065
     -4.00   -0.4484    0.0062
     -3.50   -0.3929    0.0060
     -3.00   -0.3377    0.0058
     -2.50   -0.2815    0.0057
     -2.00   -0.2257    0.0056
     -1.50   -0.1694    0.0055
     -1.00   -0.1131    0.0054
     -0.50   -0.0565    0.0054
      0.00    0.0000    0.0054
      0.50    0.0565    0.0054
      1.00    0.1131    0.0054
      1.50    0.1694    0.0055
      2.00    0.2257    0.0056
      2.50    0.2815    0.0057
      3.00    0.3377    0.0058
      3.50    0.3929    0.0060
      4.00    0.4484    0.0062
      4.50    0.5035    0.0065
      5.00    0.5581    0.0067
      5.50    0.6127    0.0070
      6.00    0.6672    0.0072
      6.50    0.7210    0.0076
      7.00    0.7739    0.0079
      7.50    0.8262    0.0083
      8.00    0.8788    0.0086
      8.50    0.9320    0.0091
      9.00    0.9885    0.0095
      9.50    1.0494    0.0100
     10.00    1.1120    0.0106
     10.50    1.1741    0.0110
     11.00    1.2340    0.0116
     11.50    1.2770    0.0123
     12.50    1.3592    0.0133
     13.00    1.4040    0.0139
     13.50    1.4474    0.0146
     14.00    1.4872    0.0154
     14.50    1.5204    0.0165
     15.00    1.5466    0.0177
     16.00    1.6045    0.0201
     16.50    1.6319    0.0215
     17.00    1.6572    0.0233
     17.50    1.6795    0.0253
     18.00    1.6991    0.0278
     18.50    1.7149    0.0309
     19.00    1.7268    0.0345
     19.50    1.7315    0.0392
     20.00    1.7293    0.0450
     20.50    1.7170    0.0523
     21.00    1.6931    0.0615
     21.50    1.6567    0.0727
     22.00    1.6055    0.0864
     22.50    1.5353    0.1037
     23.00    1.4614    0.1220
     23.50    1.3850    0.1419
     24.00    1.2958    0.1653
     24.50    1.2206    0.1884
     25.00    1.1721    0.2077
     26.00    1.1007    0.2676
     27.00    1.0437    0.2999
     28.00    0.9991    0.3315
     29.00    0.9648    0.3627
     30.00    0.9388    0.3934
     31.00    0.9195    0.4239
     32.00    0.9055    0.4541
     33.00    0.8956    0.4843
     34.00    0.8887    0.5144
     35.00    0.8843    0.5445
     36.00    0.8817    0.5746
     37.00    0.8804    0.6047
     38.00    0.8800    0.6349
     39.00    0.8802    0.6652
     40.00    0.8807    0.6955
     41.00    0.8814    0.7258
     42.00    0.8821    0.7562
     43.00    0.8826    0.7865
     44.00    0.8828    0.8169
     45.00    0.8826    0.8472
     46.00    0.8819    0.8774
     47.00    0.8807    0.9075
     48.00    0.8789    0.9375
     49.00    0.8765    0.9674
     50.00    0.8734    0.9971
     51.00    0.8696    1.0265
     52.00    0.8650    1.0557
     53.00    0.8597    1.0846
     54.00    0.8536    1.1133
     55.00    0.8466    1.1415
     56.00    0.8389    1.1694
     57.00    0.8304    1.1969
     58.00    0.8210    1.2240
     59.00    0.8108    1.2506
     60.00    0.7998    1.2767
     61.00    0.7879    1.3022
     62.00    0.7752    1.3272
     63.00    0.7617    1.3516
     64.00    0.7474    1.3754
     65.00    0.7322    1.3986
     66.00    0.7163    1.4210
     67.00    0.6996    1.4428
     68.00    0.6820    1.4639
     69.00    0.6638    1.4842
     70.00    0.6447    1.5037
     71.00    0.6250    1.5224
     72.00    0.6045    1.5403
     73.00    0.5833    1.5574
     74.00    0.5614    1.5736
     75.00    0.5389    1.5889
     76.00    0.5157    1.6034
     77.00    0.4920    1.6169
     78.00    0.4676    1.6294
     79.00    0.4427    1.6411
     80.00    0.4172    1.6517
     81.00    0.3912    1.6614
     82.00    0.3647    1.6701
     83.00    0.3378    1.6778
     84.00    0.3105    1.6845
     85.00    0.2827    1.6902
     86.00    0.2546    1.6949
     87.00    0.2261    1.6985
     88.00    0.1974    1.7012
     89.00    0.1684    1.7027
     90.00    0.1391    1.7033
     91.00    0.1096    1.7028
     92.00    0.0800    1.7013
     93.00    0.0503    1.6987
     94.00    0.0204    1.6951
     95.00   -0.0095    1.6905
     96.00   -0.0394    1.6849
     97.00   -0.0693    1.6782
     98.00   -0.0992    1.6706
     99.00   -0.1290    1.6619
    100.00   -0.1586    1.6523
    101.00   -0.1881    1.6417
    102.00   -0.2174    1.6301
    103.00   -0.2465    1.6176
    104.00   -0.2774    1.6042
    105.00   -0.3058    1.5898
    106.00   -0.3338    1.5746
    107.00   -0.3615    1.5585
    108.00   -0.3887    1.5415
    109.00   -0.4155    1.5237
    110.00   -0.4418    1.5050
    111.00   -0.4675    1.4856
    112.00   -0.4927    1.4654
    113.00   -0.5173    1.4444
    114.00   -0.5412    1.4228
    115.00   -0.5645    1.4004
    116.00   -0.5870    1.3774
    117.00   -0.6088    1.3537
    118.00   -0.6299    1.3295
    119.00   -0.6501    1.3046
    120.00   -0.6695    1.2792
    121.00   -0.6881    1.2533
    122.00   -0.7058    1.2269
    123.00   -0.7225    1.2001
    124.00   -0.7383    1.1728
    125.00   -0.7532    1.1452
    126.00   -0.7671    1.1172
    127.00   -0.7799    1.0888
    128.00   -0.7918    1.0602
    129.00   -0.8026    1.0313
    130.00   -0.8123    1.0023
    131.00   -0.8209    0.9730
    132.00   -0.8285    0.9436
    133.00   -0.8349    0.9141
    134.00   -0.8403    0.8845
    135.00   -0.8445    0.8549
    136.00   -0.8475    0.8252
    137.00   -0.8495    0.7957
    138.00   -0.8502    0.7661
    139.00   -0.8499    0.7367
    140.00   -0.8484    0.7075
    141.00   -0.8457    0.6784
    142.00   -0.8419    0.6495
    143.00   -0.8369    0.6209
    144.00   -0.8309    0.5926
    145.00   -0.8237    0.5645
    146.00   -0.8154    0.5369
    147.00   -0.8060    0.5096
    148.00   -0.7955    0.4828
    149.00   -0.7841    0.4564
    150.00   -0.7716    0.4304
    151.00   -0.7581    0.4050
    152.00   -0.7438    0.3802
    153.00   -0.7286    0.3559
    154.00   -0.7126    0.3323
    155.00   -0.6959    0.3092
    156.00   -0.6786    0.2869
    157.00   -0.6609    0.2652
    158.00   -0.6431    0.2442
    159.00   -0.6254    0.2240
    160.00   -0.6083    0.2046
    161.00   -0.5926    0.1860
    162.00   -0.5793    0.1681
    163.00   -0.5700    0.1511
    164.00   -0.5675    0.1350
    165.00   -0.5760    0.1197
    166.00   -0.6013    0.1054
    167.00   -0.6498    0.0919
    168.00   -0.7212    0.0794
    169.00   -0.7943    0.0678
    170.00   -0.8268    0.0572
    171.00   -0.7956    0.0475
    172.00   -0.7208    0.0389
    173.00   -0.6318    0.0312
    174.00   -0.5416    0.0246
    175.00   -0.4513    0.0189
    176.00   -0.3611    0.0143
    177.00   -0.2708    0.0107
    178.00   -0.1805    0.0081
    179.00   -0.0903    0.0065
    180.00   -0.0000    0.0060
    180.00   -0.0000    0.0060
