AeroDyn airfoil file Created with QBlade v0.91b 32-Bit on 03.06.2016 at 09:35:09 Compatible with AeroDyn v13.0.
Polar "T1_Re3.800_M0.00_N9.0 360 M (2)" on Foil "T1_Re3.800_M0.00_N9.0" :: generated by QBlade
1              Number of airfoil tables in this file
0              Table ID parameter
19.50          Stall angle (deg)
0              No longer used, enter zero
0              No longer used, enter zero
0              No longer used, enter zero
0.00           Angle of attack for zero Cn for linear Cn curve (deg)
6.60078        Cn slope for zero lift for linear Cn curve (1/rad)
1.1940         Cn at stall value for positive angle of attack for linear Cn curve
-1.0973        Cn at stall value for negative angle of attack for linear Cn curve
0.00           Angle of attack for minimum CD (deg)
0.0085         Minimum CD value
   -180.00    0.0000    0.0060
   -179.00    0.0921    0.0065
   -178.00    0.1843    0.0081
   -177.00    0.2764    0.0107
   -176.00    0.3686    0.0143
   -175.00    0.4607    0.0189
   -174.00    0.5529    0.0246
   -173.00    0.6450    0.0312
   -172.00    0.7355    0.0389
   -171.00    0.8102    0.0475
   -170.00    0.8376    0.0572
   -169.00    0.7988    0.0678
   -168.00    0.7209    0.0794
   -167.00    0.6478    0.0919
   -166.00    0.5992    0.1054
   -165.00    0.5743    0.1197
   -164.00    0.5663    0.1350
   -163.00    0.5691    0.1511
   -162.00    0.5786    0.1681
   -161.00    0.5921    0.1860
   -160.00    0.6080    0.2046
   -159.00    0.6251    0.2240
   -158.00    0.6429    0.2442
   -157.00    0.6607    0.2652
   -156.00    0.6784    0.2869
   -155.00    0.6957    0.3092
   -154.00    0.7125    0.3323
   -153.00    0.7285    0.3559
   -152.00    0.7437    0.3802
   -151.00    0.7581    0.4050
   -150.00    0.7715    0.4304
   -149.00    0.7840    0.4563
   -148.00    0.7955    0.4827
   -147.00    0.8059    0.5096
   -146.00    0.8153    0.5369
   -145.00    0.8236    0.5645
   -144.00    0.8308    0.5926
   -143.00    0.8369    0.6209
   -142.00    0.8419    0.6495
   -141.00    0.8457    0.6784
   -140.00    0.8483    0.7075
   -139.00    0.8499    0.7367
   -138.00    0.8502    0.7661
   -137.00    0.8495    0.7956
   -136.00    0.8475    0.8252
   -135.00    0.8445    0.8549
   -134.00    0.8403    0.8845
   -133.00    0.8349    0.9141
   -132.00    0.8285    0.9436
   -131.00    0.8209    0.9730
   -130.00    0.8123    1.0022
   -129.00    0.8026    1.0313
   -128.00    0.7918    1.0602
   -127.00    0.7799    1.0888
   -126.00    0.7671    1.1171
   -125.00    0.7532    1.1451
   -124.00    0.7383    1.1728
   -123.00    0.7225    1.2001
   -122.00    0.7058    1.2269
   -121.00    0.6881    1.2533
   -120.00    0.6695    1.2792
   -119.00    0.6501    1.3046
   -118.00    0.6299    1.3295
   -117.00    0.6088    1.3537
   -116.00    0.5870    1.3774
   -115.00    0.5645    1.4004
   -114.00    0.5412    1.4228
   -113.00    0.5173    1.4444
   -112.00    0.4927    1.4654
   -111.00    0.4675    1.4856
   -110.00    0.4418    1.5050
   -109.00    0.4155    1.5236
   -108.00    0.3887    1.5414
   -107.00    0.3615    1.5584
   -106.00    0.3338    1.5745
   -105.00    0.3058    1.5898
   -104.00    0.2774    1.6041
   -103.00    0.2461    1.6176
   -102.00    0.2171    1.6301
   -101.00    0.1878    1.6417
   -100.00    0.1583    1.6523
    -99.00    0.1287    1.6619
    -98.00    0.0989    1.6705
    -97.00    0.0690    1.6782
    -96.00    0.0391    1.6848
    -95.00    0.0092    1.6905
    -94.00   -0.0207    1.6951
    -93.00   -0.0506    1.6987
    -92.00   -0.0803    1.7012
    -91.00   -0.1100    1.7027
    -90.00   -0.1394    1.7032
    -89.00   -0.1687    1.7027
    -88.00   -0.1977    1.7011
    -87.00   -0.2264    1.6985
    -86.00   -0.2549    1.6949
    -85.00   -0.2830    1.6902
    -84.00   -0.3107    1.6845
    -83.00   -0.3381    1.6778
    -82.00   -0.3650    1.6701
    -81.00   -0.3915    1.6614
    -80.00   -0.4174    1.6517
    -79.00   -0.4429    1.6410
    -78.00   -0.4678    1.6294
    -77.00   -0.4921    1.6169
    -76.00   -0.5159    1.6034
    -75.00   -0.5390    1.5889
    -74.00   -0.5615    1.5736
    -73.00   -0.5833    1.5574
    -72.00   -0.6044    1.5404
    -71.00   -0.6249    1.5225
    -70.00   -0.6446    1.5038
    -69.00   -0.6635    1.4842
    -68.00   -0.6818    1.4640
    -67.00   -0.6992    1.4429
    -66.00   -0.7158    1.4212
    -65.00   -0.7317    1.3987
    -64.00   -0.7467    1.3756
    -63.00   -0.7609    1.3519
    -62.00   -0.7742    1.3275
    -61.00   -0.7868    1.3025
    -60.00   -0.7984    1.2770
    -59.00   -0.8092    1.2510
    -58.00   -0.8192    1.2244
    -57.00   -0.8283    1.1974
    -56.00   -0.8365    1.1700
    -55.00   -0.8439    1.1422
    -54.00   -0.8504    1.1140
    -53.00   -0.8560    1.0855
    -52.00   -0.8608    1.0567
    -51.00   -0.8647    1.0276
    -50.00   -0.8678    0.9983
    -49.00   -0.8701    0.9688
    -48.00   -0.8716    0.9391
    -47.00   -0.8723    0.9093
    -46.00   -0.8722    0.8795
    -45.00   -0.8713    0.8495
    -44.00   -0.8698    0.8196
    -43.00   -0.8675    0.7896
    -42.00   -0.8646    0.7597
    -41.00   -0.8611    0.7298
    -40.00   -0.8570    0.7001
    -39.00   -0.8524    0.6705
    -38.00   -0.8474    0.6410
    -37.00   -0.8420    0.6118
    -36.00   -0.8363    0.5828
    -35.00   -0.8304    0.5540
    -34.00   -0.8245    0.5255
    -33.00   -0.8186    0.4973
    -32.00   -0.8130    0.4695
    -31.00   -0.8078    0.4419
    -30.00   -0.8032    0.4147
    -29.00   -0.7996    0.3879
    -28.00   -0.7973    0.3615
    -27.00   -0.7966    0.3355
    -26.00   -0.7981    0.3098
    -25.00   -0.8022    0.2846
    -24.00   -0.8096    0.2597
    -23.00   -0.8212    0.2353
    -22.00   -0.8375    0.2112
    -21.00   -0.8596    0.1876
    -20.00   -0.8881    0.1645
    -19.00   -0.9234    0.1420
    -18.00   -0.9654    0.1203
    -17.00   -1.0129    0.0996
    -16.00   -1.0629    0.0803
    -15.00   -1.1107    0.0629
    -14.00   -1.1495    0.0480
    -13.00   -1.1715    0.0359
    -12.00   -1.1699    0.0268
    -11.00   -1.1407    0.0205
    -10.00   -1.1121    0.0122
     -9.50   -1.0603    0.0118
     -9.00   -1.0088    0.0113
     -8.50   -0.9553    0.0110
     -8.00   -0.9025    0.0106
     -7.50   -0.8482    0.0103
     -7.00   -0.7945    0.0100
     -6.50   -0.7401    0.0096
     -6.00   -0.6855    0.0093
     -5.50   -0.6305    0.0091
     -5.00   -0.5740    0.0089
     -4.50   -0.5170    0.0089
     -4.00   -0.4598    0.0088
     -3.50   -0.4026    0.0087
     -3.00   -0.3453    0.0087
     -2.50   -0.2878    0.0086
     -2.00   -0.2304    0.0086
     -1.50   -0.1728    0.0085
     -1.00   -0.1152    0.0085
     -0.50   -0.0576    0.0085
      0.00   -0.0000    0.0085
      0.50    0.0576    0.0085
      1.00    0.1152    0.0085
      1.50    0.1728    0.0085
      2.00    0.2304    0.0086
      2.50    0.2878    0.0086
      3.00    0.3453    0.0087
      3.50    0.4026    0.0087
      4.00    0.4599    0.0088
      4.50    0.5170    0.0089
      5.00    0.5740    0.0089
      5.50    0.6305    0.0091
      6.00    0.6856    0.0093
      6.50    0.7402    0.0096
      7.00    0.7945    0.0100
      7.50    0.8483    0.0103
      8.00    0.9026    0.0106
      8.50    0.9554    0.0110
      9.00    1.0089    0.0113
      9.50    1.0604    0.0118
     10.00    1.1122    0.0122
     10.50    1.1641    0.0125
     11.00    1.2138    0.0130
     11.50    1.2617    0.0137
     12.00    1.3098    0.0142
     12.50    1.3581    0.0147
     13.00    1.4048    0.0152
     13.50    1.4490    0.0158
     14.00    1.4886    0.0167
     14.50    1.5189    0.0177
     15.00    1.5456    0.0189
     17.00    1.6583    0.0242
     17.50    1.6803    0.0262
     18.00    1.6994    0.0287
     18.50    1.7149    0.0317
     19.00    1.7265    0.0353
     19.50    1.7311    0.0399
     20.00    1.7287    0.0456
     21.00    1.7150    0.0928
     22.00    1.6911    0.1125
     23.00    1.6593    0.1343
     24.00    1.6220    0.1581
     25.00    1.5812    0.1836
     26.00    1.5388    0.2106
     27.00    1.4963    0.2387
     28.00    1.4547    0.2679
     29.00    1.4148    0.2979
     30.00    1.3773    0.3285
     31.00    1.3423    0.3596
     32.00    1.3100    0.3911
     33.00    1.2804    0.4229
     34.00    1.2534    0.4549
     35.00    1.2288    0.4871
     36.00    1.2064    0.5195
     37.00    1.1861    0.5520
     38.00    1.1675    0.5845
     39.00    1.1505    0.6170
     40.00    1.1348    0.6495
     41.00    1.1203    0.6820
     42.00    1.1067    0.7145
     43.00    1.0939    0.7468
     44.00    1.0817    0.7791
     45.00    1.0699    0.8112
     46.00    1.0585    0.8432
     47.00    1.0473    0.8750
     48.00    1.0363    0.9066
     49.00    1.0252    0.9379
     50.00    1.0140    0.9690
     51.00    1.0027    0.9998
     52.00    0.9911    1.0303
     53.00    0.9793    1.0604
     54.00    0.9671    1.0902
     55.00    0.9545    1.1196
     56.00    0.9415    1.1485
     57.00    0.9279    1.1770
     58.00    0.9139    1.2050
     59.00    0.8994    1.2324
     60.00    0.8842    1.2594
     61.00    0.8685    1.2857
     62.00    0.8522    1.3115
     63.00    0.8353    1.3366
     64.00    0.8178    1.3611
     65.00    0.7997    1.3849
     66.00    0.7809    1.4080
     67.00    0.7615    1.4303
     68.00    0.7414    1.4519
     69.00    0.7207    1.4728
     70.00    0.6995    1.4928
     71.00    0.6775    1.5120
     72.00    0.6550    1.5304
     73.00    0.6319    1.5479
     74.00    0.6082    1.5645
     75.00    0.5840    1.5802
     76.00    0.5592    1.5950
     77.00    0.5338    1.6089
     78.00    0.5080    1.6218
     79.00    0.4816    1.6338
     80.00    0.4548    1.6448
     81.00    0.4275    1.6548
     82.00    0.3998    1.6638
     83.00    0.3717    1.6718
     84.00    0.3433    1.6787
     85.00    0.3144    1.6847
     86.00    0.2853    1.6896
     87.00    0.2559    1.6935
     88.00    0.2262    1.6963
     89.00    0.1962    1.6981
     90.00    0.1661    1.6989
     91.00    0.1358    1.6986
     92.00    0.1054    1.6972
     93.00    0.0749    1.6948
     94.00    0.0443    1.6914
     95.00    0.0137    1.6870
     96.00   -0.0169    1.6815
     97.00   -0.0475    1.6750
     98.00   -0.0780    1.6675
     99.00   -0.1084    1.6590
    100.00   -0.1386    1.6495
    101.00   -0.1686    1.6390
    102.00   -0.1985    1.6276
    103.00   -0.2280    1.6152
    104.00   -0.2774    1.6019
    105.00   -0.3058    1.5876
    106.00   -0.3338    1.5725
    107.00   -0.3615    1.5565
    108.00   -0.3887    1.5396
    109.00   -0.4155    1.5218
    110.00   -0.4418    1.5033
    111.00   -0.4675    1.4840
    112.00   -0.4927    1.4638
    113.00   -0.5173    1.4430
    114.00   -0.5412    1.4214
    115.00   -0.5645    1.3991
    116.00   -0.5870    1.3761
    117.00   -0.6088    1.3526
    118.00   -0.6299    1.3283
    119.00   -0.6501    1.3036
    120.00   -0.6695    1.2782
    121.00   -0.6881    1.2524
    122.00   -0.7058    1.2260
    123.00   -0.7225    1.1992
    124.00   -0.7383    1.1720
    125.00   -0.7532    1.1444
    126.00   -0.7671    1.1164
    127.00   -0.7799    1.0881
    128.00   -0.7918    1.0596
    129.00   -0.8026    1.0307
    130.00   -0.8123    1.0017
    131.00   -0.8209    0.9725
    132.00   -0.8285    0.9431
    133.00   -0.8350    0.9136
    134.00   -0.8403    0.8840
    135.00   -0.8445    0.8544
    136.00   -0.8475    0.8248
    137.00   -0.8495    0.7953
    138.00   -0.8502    0.7658
    139.00   -0.8499    0.7364
    140.00   -0.8484    0.7072
    141.00   -0.8457    0.6781
    142.00   -0.8419    0.6493
    143.00   -0.8369    0.6207
    144.00   -0.8309    0.5923
    145.00   -0.8237    0.5643
    146.00   -0.8154    0.5367
    147.00   -0.8060    0.5094
    148.00   -0.7956    0.4826
    149.00   -0.7841    0.4562
    150.00   -0.7716    0.4303
    151.00   -0.7582    0.4049
    152.00   -0.7438    0.3801
    153.00   -0.7286    0.3558
    154.00   -0.7126    0.3322
    155.00   -0.6959    0.3092
    156.00   -0.6786    0.2868
    157.00   -0.6609    0.2651
    158.00   -0.6431    0.2442
    159.00   -0.6254    0.2240
    160.00   -0.6083    0.2046
    161.00   -0.5925    0.1859
    162.00   -0.5791    0.1681
    163.00   -0.5697    0.1511
    164.00   -0.5671    0.1350
    165.00   -0.5753    0.1197
    166.00   -0.6004    0.1053
    167.00   -0.6490    0.0919
    168.00   -0.7220    0.0794
    169.00   -0.7993    0.0678
    170.00   -0.8376    0.0572
    171.00   -0.8101    0.0475
    172.00   -0.7355    0.0389
    173.00   -0.6450    0.0312
    174.00   -0.5529    0.0246
    175.00   -0.4607    0.0189
    176.00   -0.3686    0.0143
    177.00   -0.2764    0.0107
    178.00   -0.1843    0.0081
    179.00   -0.0921    0.0065
    180.00    0.0000    0.0060
    180.00    0.0000    0.0060
