AeroDyn airfoil file Created with QBlade v0.91b 32-Bit on 03.06.2016 at 15:35:23 Compatible with AeroDyn v13.0.
Polar "T1_Re0.600_M0.00_N9.0 360 M" on Foil "T1_Re0.600_M0.00_N9.0" :: generated by QBlade
1              Number of airfoil tables in this file
0              Table ID parameter
14.00          Stall angle (deg)
0              No longer used, enter zero
0              No longer used, enter zero
0              No longer used, enter zero
-1.52          Angle of attack for zero Cn for linear Cn curve (deg)
6.60854        Cn slope for zero lift for linear Cn curve (1/rad)
-0.6720        Cn at stall value for positive angle of attack for linear Cn curve
-0.8334        Cn at stall value for negative angle of attack for linear Cn curve
-1.00          Angle of attack for minimum CD (deg)
0.0071         Minimum CD value
   -180.00   -0.0452    0.0060
   -179.00   -0.0072    0.0065
   -178.00    0.0288    0.0081
   -177.00    0.0632    0.0106
   -176.00    0.0963    0.0143
   -175.00    0.1283    0.0189
   -174.00    0.1594    0.0245
   -173.00    0.1895    0.0312
   -172.00    0.2189    0.0388
   -171.00    0.2475    0.0475
   -170.00    0.2754    0.0571
   -169.00    0.3025    0.0677
   -168.00    0.3289    0.0792
   -167.00    0.3546    0.0917
   -166.00    0.3795    0.1051
   -165.00    0.4037    0.1195
   -164.00    0.4270    0.1347
   -163.00    0.4496    0.1507
   -162.00    0.4713    0.1677
   -161.00    0.4921    0.1854
   -160.00    0.5121    0.2040
   -159.00    0.5312    0.2233
   -158.00    0.5493    0.2434
   -157.00    0.5666    0.2642
   -156.00    0.5829    0.2858
   -155.00    0.5982    0.3080
   -154.00    0.6126    0.3309
   -153.00    0.6260    0.3544
   -152.00    0.6384    0.3785
   -151.00    0.6498    0.4032
   -150.00    0.6602    0.4284
   -149.00    0.6696    0.4542
   -148.00    0.6780    0.4804
   -147.00    0.6854    0.5070
   -146.00    0.6918    0.5341
   -145.00    0.6971    0.5615
   -144.00    0.7015    0.5893
   -143.00    0.7048    0.6174
   -142.00    0.7072    0.6458
   -141.00    0.7085    0.6744
   -140.00    0.7089    0.7032
   -139.00    0.7083    0.7322
   -138.00    0.7067    0.7613
   -137.00    0.7042    0.7906
   -136.00    0.7008    0.8199
   -135.00    0.6964    0.8492
   -134.00    0.6912    0.8785
   -133.00    0.6850    0.9078
   -132.00    0.6780    0.9370
   -131.00    0.6659    0.9661
   -130.00    0.6573    0.9951
   -129.00    0.6479    1.0238
   -128.00    0.6377    1.0524
   -127.00    0.6268    1.0807
   -126.00    0.6150    1.1087
   -125.00    0.6026    1.1364
   -124.00    0.5894    1.1637
   -123.00    0.5755    1.1907
   -122.00    0.5610    1.2172
   -121.00    0.5459    1.2433
   -120.00    0.5301    1.2689
   -119.00    0.5137    1.2940
   -118.00    0.4968    1.3185
   -117.00    0.4794    1.3425
   -116.00    0.4614    1.3658
   -115.00    0.4430    1.3886
   -114.00    0.4240    1.4106
   -113.00    0.4047    1.4320
   -112.00    0.3850    1.4527
   -111.00    0.3648    1.4726
   -110.00    0.3444    1.4918
   -109.00    0.3235    1.5102
   -108.00    0.3024    1.5278
   -107.00    0.2810    1.5446
   -106.00    0.2594    1.5605
   -105.00    0.2375    1.5755
   -104.00    0.2154    1.5897
   -103.00    0.1932    1.6030
   -102.00    0.1708    1.6153
   -101.00    0.1483    1.6267
   -100.00    0.1256    1.6372
    -99.00    0.1029    1.6467
    -98.00    0.0802    1.6553
    -97.00    0.0574    1.6628
    -96.00    0.0346    1.6694
    -95.00    0.0118    1.6750
    -94.00   -0.0110    1.6795
    -93.00   -0.0336    1.6831
    -92.00   -0.0562    1.6856
    -91.00   -0.0787    1.6872
    -90.00   -0.1011    1.6877
    -89.00   -0.1233    1.6872
    -88.00   -0.1454    1.6856
    -87.00   -0.1672    1.6831
    -86.00   -0.1888    1.6795
    -85.00   -0.2103    1.6750
    -84.00   -0.2314    1.6694
    -83.00   -0.2523    1.6628
    -82.00   -0.2729    1.6552
    -81.00   -0.2932    1.6467
    -80.00   -0.3132    1.6372
    -79.00   -0.3328    1.6267
    -78.00   -0.3520    1.6153
    -77.00   -0.3709    1.6029
    -76.00   -0.3894    1.5897
    -75.00   -0.4074    1.5755
    -74.00   -0.4251    1.5604
    -73.00   -0.4422    1.5445
    -72.00   -0.4590    1.5278
    -71.00   -0.4752    1.5102
    -70.00   -0.4909    1.4918
    -69.00   -0.5062    1.4726
    -68.00   -0.5209    1.4526
    -67.00   -0.5350    1.4319
    -66.00   -0.5487    1.4106
    -65.00   -0.5617    1.3885
    -64.00   -0.5742    1.3657
    -63.00   -0.5861    1.3424
    -62.00   -0.5974    1.3184
    -61.00   -0.6080    1.2939
    -60.00   -0.6181    1.2688
    -59.00   -0.6275    1.2432
    -58.00   -0.6363    1.2171
    -57.00   -0.6444    1.1905
    -56.00   -0.6518    1.1636
    -55.00   -0.6586    1.1362
    -54.00   -0.6647    1.1085
    -53.00   -0.6701    1.0805
    -52.00   -0.6748    1.0522
    -51.00   -0.6788    1.0236
    -50.00   -0.6820    0.9948
    -49.00   -0.6846    0.9659
    -48.00   -0.6864    0.9367
    -47.00   -0.6876    0.9075
    -46.00   -0.6879    0.8782
    -45.00   -0.6876    0.8489
    -44.00   -0.6865    0.8195
    -43.00   -0.6847    0.7902
    -42.00   -0.6822    0.7609
    -41.00   -0.6789    0.7318
    -40.00   -0.6749    0.7027
    -39.00   -0.6701    0.6739
    -38.00   -0.6647    0.6452
    -37.00   -0.6585    0.6168
    -36.00   -0.6517    0.5886
    -35.00   -0.6441    0.5608
    -34.00   -0.6359    0.5332
    -33.00   -0.6270    0.5061
    -32.00   -0.6175    0.4793
    -31.00   -0.6073    0.4530
    -30.00   -0.5967    0.4272
    -29.00   -0.5855    0.4018
    -28.00   -0.5738    0.3769
    -27.00   -0.5618    0.3526
    -26.00   -0.5496    0.3288
    -25.00   -0.5372    0.3056
    -24.00   -0.5249    0.2829
    -23.00   -0.5130    0.2609
    -22.00   -0.5019    0.2394
    -21.00   -0.4921    0.2185
    -20.00   -0.4846    0.1982
    -19.00   -0.4807    0.1782
    -18.00   -0.4823    0.1586
    -17.00   -0.4927    0.1392
    -16.00   -0.5166    0.1197
    -15.00   -0.5608    0.0997
    -14.00   -0.6328    0.0790
    -13.00   -0.7353    0.0581
    -12.00   -0.8502    0.0386
    -11.00   -0.9301    0.0240
    -10.00   -0.8853    0.0208
     -9.50   -0.8417    0.0192
     -9.00   -0.7708    0.0179
     -8.50   -0.7207    0.0170
     -8.00   -0.6763    0.0162
     -7.50   -0.6349    0.0148
     -7.00   -0.5924    0.0132
     -6.50   -0.5429    0.0124
     -6.00   -0.4919    0.0116
     -5.50   -0.4400    0.0108
     -5.00   -0.3899    0.0095
     -4.50   -0.3398    0.0081
     -4.00   -0.2846    0.0075
     -3.50   -0.2277    0.0074
     -3.00   -0.1701    0.0072
     -2.50   -0.1128    0.0072
     -2.00   -0.0548    0.0072
     -1.50    0.0029    0.0072
     -1.00    0.0610    0.0071
     -0.50    0.1189    0.0072
      0.00    0.1773    0.0072
      0.50    0.2349    0.0073
      1.00    0.2933    0.0072
      1.50    0.3507    0.0073
      2.00    0.4087    0.0074
      2.50    0.4657    0.0075
      3.00    0.5231    0.0075
      3.50    0.5799    0.0077
      4.00    0.6356    0.0078
      5.00    0.7444    0.0084
      5.50    0.7932    0.0093
      6.00    0.8345    0.0111
      6.50    0.8759    0.0126
      7.00    0.9185    0.0138
      7.50    0.9610    0.0149
      8.00    0.9993    0.0157
      8.50    1.0303    0.0168
      9.00    1.0625    0.0188
      9.50    1.1008    0.0198
     10.00    1.1303    0.0213
     10.50    1.1536    0.0234
     11.00    1.1752    0.0259
     11.50    1.1913    0.0289
     12.00    1.2030    0.0329
     12.50    1.2125    0.0379
     13.50    1.2165    0.0493
     14.00    1.2194    0.0543
     14.50    1.2173    0.0602
     15.00    1.2109    0.0673
     15.50    1.1990    0.0759
     16.00    1.1798    0.0865
     16.50    1.1525    0.0997
     17.00    1.1097    0.1176
     18.00    0.8741    0.2160
     21.50    0.9588    0.2812
     22.00    0.9738    0.2896
     22.50    0.9892    0.2963
     23.00    1.0048    0.3024
     23.50    1.0137    0.3147
     24.00    1.0269    0.3243
     24.50    1.0400    0.3338
     25.00    1.0530    0.3433
     26.00    1.0135    0.2972
     27.00    1.0103    0.3230
     28.00    1.0090    0.3494
     29.00    1.0093    0.3763
     30.00    1.0109    0.4036
     31.00    1.0136    0.4313
     32.00    1.0172    0.4594
     33.00    1.0214    0.4879
     34.00    1.0261    0.5168
     35.00    1.0310    0.5459
     36.00    1.0361    0.5753
     37.00    1.0412    0.6050
     38.00    1.0462    0.6349
     39.00    1.0509    0.6650
     40.00    1.0553    0.6953
     41.00    1.0593    0.7256
     42.00    1.0628    0.7561
     43.00    1.0657    0.7867
     44.00    1.0679    0.8173
     45.00    1.0695    0.8478
     46.00    1.0703    0.8784
     47.00    1.0704    0.9089
     48.00    1.0696    0.9393
     49.00    1.0679    0.9695
     50.00    1.0654    0.9996
     51.00    1.0619    1.0294
     52.00    1.0575    1.0591
     53.00    1.0520    1.0884
     54.00    1.0456    1.1175
     55.00    1.0382    1.1462
     56.00    1.0297    1.1746
     57.00    1.0202    1.2025
     58.00    1.0097    1.2300
     59.00    0.9981    1.2570
     60.00    0.9855    1.2835
     61.00    0.9718    1.3095
     62.00    0.9570    1.3349
     63.00    0.9412    1.3598
     64.00    0.9244    1.3840
     65.00    0.9065    1.4075
     66.00    0.8876    1.4304
     67.00    0.8677    1.4526
     68.00    0.8467    1.4740
     69.00    0.8248    1.4946
     70.00    0.8019    1.5145
     71.00    0.7781    1.5336
     72.00    0.7533    1.5518
     73.00    0.7276    1.5692
     74.00    0.7011    1.5857
     75.00    0.6737    1.6013
     76.00    0.6454    1.6160
     77.00    0.6164    1.6298
     78.00    0.5866    1.6426
     79.00    0.5560    1.6545
     80.00    0.5248    1.6654
     81.00    0.4929    1.6753
     82.00    0.4603    1.6841
     83.00    0.4272    1.6920
     84.00    0.3935    1.6989
     85.00    0.3593    1.7047
     86.00    0.3246    1.7095
     87.00    0.2895    1.7133
     88.00    0.2541    1.7160
     89.00    0.2182    1.7176
     90.00    0.1821    1.7182
     91.00    0.1457    1.7178
     92.00    0.1092    1.7163
     93.00    0.0724    1.7137
     94.00    0.0356    1.7101
     95.00   -0.0013    1.7055
     96.00   -0.0382    1.6998
     97.00   -0.0750    1.6931
     98.00   -0.1118    1.6854
     99.00   -0.1484    1.6766
    100.00   -0.1849    1.6669
    101.00   -0.2211    1.6562
    102.00   -0.2570    1.6445
    103.00   -0.2925    1.6318
    104.00   -0.3277    1.6182
    105.00   -0.3624    1.6037
    106.00   -0.3967    1.5883
    107.00   -0.4304    1.5720
    108.00   -0.4635    1.5548
    109.00   -0.4960    1.5367
    110.00   -0.5278    1.5179
    111.00   -0.5588    1.4982
    112.00   -0.5892    1.4778
    113.00   -0.6186    1.4566
    114.00   -0.6473    1.4347
    115.00   -0.6816    1.4120
    116.00   -0.7083    1.3887
    117.00   -0.7341    1.3648
    118.00   -0.7588    1.3402
    119.00   -0.7825    1.3151
    120.00   -0.8051    1.2894
    121.00   -0.8267    1.2632
    122.00   -0.8470    1.2365
    123.00   -0.8662    1.2093
    124.00   -0.8842    1.1818
    125.00   -0.9010    1.1538
    126.00   -0.9165    1.1255
    127.00   -0.9308    1.0968
    128.00   -0.9438    1.0679
    129.00   -0.9554    1.0387
    130.00   -0.9658    1.0093
    131.00   -0.9748    0.9798
    132.00   -0.9825    0.9500
    133.00   -0.9888    0.9202
    134.00   -0.9937    0.8903
    135.00   -0.9973    0.8604
    136.00   -0.9996    0.8305
    137.00   -1.0004    0.8006
    138.00   -0.9999    0.7709
    139.00   -0.9980    0.7412
    140.00   -0.9948    0.7117
    141.00   -0.9903    0.6823
    142.00   -0.9844    0.6532
    143.00   -0.9772    0.6243
    144.00   -0.9688    0.5958
    145.00   -0.9590    0.5675
    146.00   -0.9480    0.5396
    147.00   -0.9358    0.5122
    148.00   -0.9224    0.4851
    149.00   -0.9078    0.4585
    150.00   -0.8921    0.4324
    151.00   -0.8753    0.4068
    152.00   -0.8574    0.3818
    153.00   -0.8385    0.3574
    154.00   -0.8187    0.3336
    155.00   -0.7979    0.3104
    156.00   -0.7763    0.2879
    157.00   -0.7538    0.2661
    158.00   -0.7306    0.2451
    159.00   -0.7068    0.2248
    160.00   -0.6823    0.2052
    161.00   -0.6573    0.1865
    162.00   -0.6319    0.1686
    163.00   -0.6062    0.1515
    164.00   -0.5803    0.1353
    165.00   -0.5543    0.1200
    166.00   -0.5284    0.1056
    167.00   -0.5028    0.0921
    168.00   -0.4776    0.0795
    169.00   -0.4530    0.0679
    170.00   -0.4293    0.0573
    171.00   -0.4065    0.0476
    172.00   -0.3846    0.0389
    173.00   -0.3633    0.0312
    174.00   -0.3417    0.0246
    175.00   -0.3178    0.0189
    176.00   -0.2884    0.0143
    177.00   -0.2492    0.0107
    178.00   -0.1961    0.0081
    179.00   -0.1273    0.0065
    180.00   -0.0452    0.0060
    180.00   -0.0452    0.0060
