AeroDyn airfoil file Created with QBlade v0.91b 32-Bit on 03.06.2016 at 09:35:09 Compatible with AeroDyn v13.0.
Polar "T1_Re2.200_M0.00_N9.0 360 M" on Foil "T1_Re2.200_M0.00_N9.0" :: generated by QBlade
1              Number of airfoil tables in this file
0              Table ID parameter
17.50          Stall angle (deg)
0              No longer used, enter zero
0              No longer used, enter zero
0              No longer used, enter zero
0.00           Angle of attack for zero Cn for linear Cn curve (deg)
6.55032        Cn slope for zero lift for linear Cn curve (1/rad)
1.0859         Cn at stall value for positive angle of attack for linear Cn curve
-1.0857        Cn at stall value for negative angle of attack for linear Cn curve
0.00           Angle of attack for minimum CD (deg)
0.0094         Minimum CD value
   -180.00    0.0000    0.0060
   -179.00    0.0914    0.0065
   -178.00    0.1829    0.0081
   -177.00    0.2743    0.0107
   -176.00    0.3657    0.0143
   -175.00    0.4571    0.0189
   -174.00    0.5460    0.0246
   -173.00    0.6215    0.0312
   -172.00    0.6640    0.0389
   -171.00    0.6613    0.0475
   -170.00    0.6253    0.0572
   -169.00    0.5821    0.0678
   -168.00    0.5491    0.0794
   -167.00    0.5306    0.0919
   -166.00    0.5248    0.1054
   -165.00    0.5281    0.1197
   -164.00    0.5377    0.1350
   -163.00    0.5513    0.1511
   -162.00    0.5674    0.1681
   -161.00    0.5851    0.1860
   -160.00    0.6036    0.2046
   -159.00    0.6225    0.2240
   -158.00    0.6413    0.2442
   -157.00    0.6599    0.2652
   -156.00    0.6781    0.2869
   -155.00    0.6957    0.3092
   -154.00    0.7127    0.3323
   -153.00    0.7288    0.3559
   -152.00    0.7441    0.3802
   -151.00    0.7586    0.4050
   -150.00    0.7720    0.4304
   -149.00    0.7845    0.4563
   -148.00    0.7960    0.4827
   -147.00    0.8065    0.5096
   -146.00    0.8158    0.5369
   -145.00    0.8241    0.5645
   -144.00    0.8313    0.5926
   -143.00    0.8374    0.6209
   -142.00    0.8423    0.6495
   -141.00    0.8461    0.6784
   -140.00    0.8487    0.7075
   -139.00    0.8502    0.7367
   -138.00    0.8506    0.7661
   -137.00    0.8498    0.7956
   -136.00    0.8479    0.8252
   -135.00    0.8448    0.8549
   -134.00    0.8406    0.8845
   -133.00    0.8352    0.9141
   -132.00    0.8288    0.9436
   -131.00    0.8212    0.9730
   -130.00    0.8125    1.0022
   -129.00    0.8028    1.0313
   -128.00    0.7920    1.0602
   -127.00    0.7801    1.0888
   -126.00    0.7673    1.1171
   -125.00    0.7534    1.1451
   -124.00    0.7385    1.1728
   -123.00    0.7227    1.2001
   -122.00    0.7059    1.2269
   -121.00    0.6882    1.2533
   -120.00    0.6697    1.2792
   -119.00    0.6503    1.3046
   -118.00    0.6300    1.3295
   -117.00    0.6090    1.3537
   -116.00    0.5871    1.3774
   -115.00    0.5646    1.4004
   -114.00    0.5413    1.4228
   -113.00    0.5174    1.4444
   -112.00    0.4928    1.4654
   -111.00    0.4676    1.4856
   -110.00    0.4419    1.5050
   -109.00    0.4156    1.5236
   -108.00    0.3888    1.5414
   -107.00    0.3616    1.5584
   -106.00    0.3339    1.5745
   -105.00    0.3034    1.5898
   -104.00    0.2749    1.6041
   -103.00    0.2461    1.6176
   -102.00    0.2171    1.6301
   -101.00    0.1878    1.6417
   -100.00    0.1583    1.6523
    -99.00    0.1287    1.6619
    -98.00    0.0989    1.6705
    -97.00    0.0690    1.6782
    -96.00    0.0391    1.6848
    -95.00    0.0092    1.6905
    -94.00   -0.0207    1.6951
    -93.00   -0.0506    1.6987
    -92.00   -0.0804    1.7012
    -91.00   -0.1100    1.7027
    -90.00   -0.1394    1.7032
    -89.00   -0.1687    1.7027
    -88.00   -0.1977    1.7011
    -87.00   -0.2265    1.6985
    -86.00   -0.2549    1.6949
    -85.00   -0.2830    1.6902
    -84.00   -0.3108    1.6845
    -83.00   -0.3381    1.6778
    -82.00   -0.3650    1.6701
    -81.00   -0.3915    1.6614
    -80.00   -0.4174    1.6517
    -79.00   -0.4429    1.6410
    -78.00   -0.4678    1.6294
    -77.00   -0.4921    1.6168
    -76.00   -0.5159    1.6033
    -75.00   -0.5390    1.5889
    -74.00   -0.5615    1.5736
    -73.00   -0.5833    1.5574
    -72.00   -0.6045    1.5404
    -71.00   -0.6249    1.5225
    -70.00   -0.6446    1.5037
    -69.00   -0.6636    1.4842
    -68.00   -0.6818    1.4639
    -67.00   -0.6992    1.4429
    -66.00   -0.7159    1.4212
    -65.00   -0.7317    1.3987
    -64.00   -0.7467    1.3756
    -63.00   -0.7609    1.3518
    -62.00   -0.7743    1.3274
    -61.00   -0.7868    1.3025
    -60.00   -0.7985    1.2770
    -59.00   -0.8093    1.2509
    -58.00   -0.8192    1.2244
    -57.00   -0.8283    1.1974
    -56.00   -0.8366    1.1700
    -55.00   -0.8439    1.1422
    -54.00   -0.8504    1.1140
    -53.00   -0.8561    1.0854
    -52.00   -0.8609    1.0566
    -51.00   -0.8648    1.0276
    -50.00   -0.8679    0.9982
    -49.00   -0.8702    0.9687
    -48.00   -0.8717    0.9391
    -47.00   -0.8724    0.9093
    -46.00   -0.8723    0.8794
    -45.00   -0.8715    0.8494
    -44.00   -0.8699    0.8195
    -43.00   -0.8677    0.7895
    -42.00   -0.8648    0.7596
    -41.00   -0.8613    0.7297
    -40.00   -0.8573    0.7000
    -39.00   -0.8527    0.6704
    -38.00   -0.8477    0.6409
    -37.00   -0.8423    0.6117
    -36.00   -0.8367    0.5826
    -35.00   -0.8309    0.5538
    -34.00   -0.8250    0.5253
    -33.00   -0.8192    0.4971
    -32.00   -0.8136    0.4692
    -31.00   -0.8085    0.4417
    -30.00   -0.8041    0.4145
    -29.00   -0.8006    0.3876
    -28.00   -0.7984    0.3611
    -27.00   -0.7980    0.3351
    -26.00   -0.7996    0.3094
    -25.00   -0.8040    0.2841
    -24.00   -0.8118    0.2592
    -23.00   -0.8237    0.2346
    -22.00   -0.8405    0.2105
    -21.00   -0.8630    0.1869
    -20.00   -0.8919    0.1637
    -19.00   -0.9277    0.1411
    -18.00   -0.9700    0.1193
    -17.00   -1.0176    0.0986
    -16.00   -1.0674    0.0793
    -15.00   -1.1145    0.0620
    -14.00   -1.1519    0.0472
    -13.00   -1.1721    0.0352
    -12.00   -1.1684    0.0263
    -11.00   -1.1372    0.0203
    -10.00   -1.1001    0.0134
     -9.50   -1.0497    0.0130
     -9.00   -0.9983    0.0125
     -8.50   -0.9471    0.0120
     -8.00   -0.8945    0.0117
     -7.50   -0.8417    0.0113
     -7.00   -0.7888    0.0109
     -6.50   -0.7355    0.0105
     -6.00   -0.6816    0.0102
     -5.50   -0.6255    0.0100
     -5.00   -0.5692    0.0099
     -4.50   -0.5128    0.0098
     -4.00   -0.4561    0.0097
     -3.50   -0.3994    0.0097
     -3.00   -0.3425    0.0096
     -2.50   -0.2856    0.0095
     -2.00   -0.2286    0.0095
     -1.50   -0.1715    0.0095
     -1.00   -0.1143    0.0094
     -0.50   -0.0572    0.0094
      0.00   -0.0000    0.0094
      0.50    0.0572    0.0094
      1.00    0.1143    0.0094
      1.50    0.1715    0.0095
      2.00    0.2286    0.0095
      2.50    0.2856    0.0095
      3.00    0.3426    0.0096
      3.50    0.3994    0.0097
      4.00    0.4562    0.0097
      4.50    0.5128    0.0098
      5.00    0.5692    0.0099
      5.50    0.6255    0.0100
      6.00    0.6816    0.0102
      6.50    0.7355    0.0105
      7.00    0.7889    0.0109
      7.50    0.8418    0.0113
      8.00    0.8946    0.0117
      8.50    0.9472    0.0120
      9.00    0.9984    0.0125
      9.50    1.0498    0.0130
     10.00    1.1003    0.0134
     10.50    1.1482    0.0141
     11.00    1.1978    0.0146
     11.50    1.2459    0.0151
     12.00    1.2915    0.0158
     12.50    1.3341    0.0166
     13.00    1.3731    0.0175
     13.50    1.4146    0.0182
     14.00    1.4467    0.0189
     14.50    1.4797    0.0199
     15.00    1.5092    0.0211
     15.50    1.5348    0.0226
     16.00    1.5558    0.0246
     16.50    1.5725    0.0270
     17.00    1.5831    0.0302
     17.50    1.5867    0.0345
     18.00    1.5787    0.0405
     18.50    1.5648    0.0478
     19.00    1.5570    0.0549
     19.50    1.5395    0.0636
     20.00    1.5092    0.0745
     21.00    1.4591    0.1202
     22.00    1.4046    0.1446
     23.00    1.3494    0.1707
     24.00    1.2962    0.1980
     25.00    1.2466    0.2262
     26.00    1.2016    0.2550
     27.00    1.1618    0.2843
     28.00    1.1271    0.3139
     29.00    1.0972    0.3438
     30.00    1.0717    0.3738
     31.00    1.0502    0.4041
     32.00    1.0321    0.4344
     33.00    1.0170    0.4649
     34.00    1.0045    0.4955
     35.00    0.9940    0.5262
     36.00    0.9853    0.5570
     37.00    0.9779    0.5878
     38.00    0.9717    0.6188
     39.00    0.9664    0.6498
     40.00    0.9617    0.6808
     41.00    0.9575    0.7118
     42.00    0.9535    0.7429
     43.00    0.9497    0.7739
     44.00    0.9458    0.8048
     45.00    0.9419    0.8357
     46.00    0.9378    0.8665
     47.00    0.9333    0.8972
     48.00    0.9285    0.9277
     49.00    0.9233    0.9581
     50.00    0.9176    0.9882
     51.00    0.9114    1.0181
     52.00    0.9046    1.0477
     53.00    0.8971    1.0770
     54.00    0.8891    1.1060
     55.00    0.8803    1.1346
     56.00    0.8709    1.1629
     57.00    0.8608    1.1907
     58.00    0.8499    1.2180
     59.00    0.8383    1.2449
     60.00    0.8260    1.2713
     61.00    0.8129    1.2971
     62.00    0.7991    1.3223
     63.00    0.7845    1.3469
     64.00    0.7692    1.3710
     65.00    0.7531    1.3943
     66.00    0.7362    1.4170
     67.00    0.7187    1.4389
     68.00    0.7003    1.4602
     69.00    0.6813    1.4806
     70.00    0.6616    1.5003
     71.00    0.6411    1.5192
     72.00    0.6200    1.5373
     73.00    0.5982    1.5545
     74.00    0.5758    1.5708
     75.00    0.5527    1.5862
     76.00    0.5291    1.6008
     77.00    0.5048    1.6144
     78.00    0.4800    1.6271
     79.00    0.4546    1.6388
     80.00    0.4287    1.6496
     81.00    0.4023    1.6594
     82.00    0.3755    1.6682
     83.00    0.3482    1.6760
     84.00    0.3205    1.6828
     85.00    0.2924    1.6885
     86.00    0.2639    1.6933
     87.00    0.2352    1.6970
     88.00    0.2061    1.6997
     89.00    0.1768    1.7013
     90.00    0.1473    1.7019
     91.00    0.1176    1.7015
     92.00    0.0877    1.7000
     93.00    0.0577    1.6975
     94.00    0.0277    1.6940
     95.00   -0.0025    1.6894
     96.00   -0.0326    1.6838
     97.00   -0.0627    1.6772
     98.00   -0.0928    1.6696
     99.00   -0.1227    1.6610
    100.00   -0.1526    1.6514
    101.00   -0.1822    1.6409
    102.00   -0.2117    1.6294
    103.00   -0.2409    1.6169
    104.00   -0.2698    1.6035
    105.00   -0.2984    1.5892
    106.00   -0.3339    1.5739
    107.00   -0.3616    1.5579
    108.00   -0.3888    1.5409
    109.00   -0.4156    1.5231
    110.00   -0.4419    1.5045
    111.00   -0.4676    1.4851
    112.00   -0.4928    1.4649
    113.00   -0.5174    1.4440
    114.00   -0.5413    1.4224
    115.00   -0.5646    1.4000
    116.00   -0.5872    1.3770
    117.00   -0.6090    1.3534
    118.00   -0.6300    1.3291
    119.00   -0.6503    1.3043
    120.00   -0.6697    1.2789
    121.00   -0.6883    1.2530
    122.00   -0.7059    1.2267
    123.00   -0.7227    1.1998
    124.00   -0.7385    1.1726
    125.00   -0.7534    1.1449
    126.00   -0.7673    1.1169
    127.00   -0.7802    1.0886
    128.00   -0.7920    1.0600
    129.00   -0.8028    1.0312
    130.00   -0.8125    1.0021
    131.00   -0.8212    0.9728
    132.00   -0.8288    0.9434
    133.00   -0.8352    0.9139
    134.00   -0.8406    0.8844
    135.00   -0.8448    0.8547
    136.00   -0.8479    0.8251
    137.00   -0.8498    0.7955
    138.00   -0.8506    0.7660
    139.00   -0.8503    0.7366
    140.00   -0.8488    0.7074
    141.00   -0.8461    0.6783
    142.00   -0.8423    0.6494
    143.00   -0.8374    0.6208
    144.00   -0.8313    0.5925
    145.00   -0.8242    0.5645
    146.00   -0.8159    0.5368
    147.00   -0.8065    0.5096
    148.00   -0.7961    0.4827
    149.00   -0.7846    0.4563
    150.00   -0.7721    0.4304
    151.00   -0.7586    0.4050
    152.00   -0.7442    0.3802
    153.00   -0.7289    0.3559
    154.00   -0.7128    0.3322
    155.00   -0.6959    0.3092
    156.00   -0.6783    0.2868
    157.00   -0.6601    0.2652
    158.00   -0.6415    0.2442
    159.00   -0.6227    0.2240
    160.00   -0.6038    0.2046
    161.00   -0.5854    0.1859
    162.00   -0.5677    0.1681
    163.00   -0.5517    0.1511
    164.00   -0.5381    0.1350
    165.00   -0.5287    0.1197
    166.00   -0.5254    0.1054
    167.00   -0.5313    0.0919
    168.00   -0.5497    0.0794
    169.00   -0.5825    0.0678
    170.00   -0.6253    0.0572
    171.00   -0.6608    0.0475
    172.00   -0.6635    0.0389
    173.00   -0.6211    0.0312
    174.00   -0.5459    0.0246
    175.00   -0.4571    0.0189
    176.00   -0.3657    0.0143
    177.00   -0.2743    0.0107
    178.00   -0.1829    0.0081
    179.00   -0.0914    0.0065
    180.00    0.0000    0.0060
    180.00    0.0000    0.0060
