AeroDyn airfoil file Created with QBlade v0.91b 32-Bit on 03.06.2016 at 14:42:38 Compatible with AeroDyn v13.0.
Polar "T1_Re1.400_M0.00_N9.0 360 M" on Foil "T1_Re1.400_M0.00_N9.0" :: generated by QBlade
1              Number of airfoil tables in this file
0              Table ID parameter
17.00          Stall angle (deg)
0              No longer used, enter zero
0              No longer used, enter zero
0              No longer used, enter zero
-1.39          Angle of attack for zero Cn for linear Cn curve (deg)
6.61799        Cn slope for zero lift for linear Cn curve (1/rad)
1.0445         Cn at stall value for positive angle of attack for linear Cn curve
-0.9184        Cn at stall value for negative angle of attack for linear Cn curve
-1.00          Angle of attack for minimum CD (deg)
0.0109         Minimum CD value
   -180.00   -0.0405    0.0060
   -179.00    0.0516    0.0065
   -178.00    0.1436    0.0080
   -177.00    0.2355    0.0106
   -176.00    0.3249    0.0141
   -175.00    0.4034    0.0187
   -174.00    0.4572    0.0242
   -173.00    0.4768    0.0308
   -172.00    0.4678    0.0383
   -171.00    0.4468    0.0468
   -170.00    0.4275    0.0562
   -169.00    0.4160    0.0666
   -168.00    0.4128    0.0780
   -167.00    0.4165    0.0903
   -166.00    0.4251    0.1034
   -165.00    0.4372    0.1175
   -164.00    0.4515    0.1324
   -163.00    0.4673    0.1482
   -162.00    0.4838    0.1649
   -161.00    0.5007    0.1823
   -160.00    0.5176    0.2005
   -159.00    0.5343    0.2196
   -158.00    0.5506    0.2393
   -157.00    0.5665    0.2598
   -156.00    0.5817    0.2810
   -155.00    0.5962    0.3028
   -154.00    0.6099    0.3253
   -153.00    0.6228    0.3484
   -152.00    0.6349    0.3721
   -151.00    0.6460    0.3964
   -150.00    0.6563    0.4211
   -149.00    0.6656    0.4464
   -148.00    0.6740    0.4722
   -147.00    0.6814    0.4984
   -146.00    0.6879    0.5250
   -145.00    0.6934    0.5519
   -144.00    0.6979    0.5792
   -143.00    0.7014    0.6068
   -142.00    0.7039    0.6347
   -141.00    0.7055    0.6628
   -140.00    0.7061    0.6912
   -139.00    0.7057    0.7196
   -138.00    0.7044    0.7483
   -137.00    0.7022    0.7770
   -136.00    0.6990    0.8058
   -135.00    0.6949    0.8346
   -134.00    0.6898    0.8634
   -133.00    0.6839    0.8922
   -132.00    0.6771    0.9209
   -131.00    0.6695    0.9495
   -130.00    0.6610    0.9779
   -129.00    0.6517    1.0062
   -128.00    0.6416    1.0343
   -127.00    0.6307    1.0621
   -126.00    0.6190    1.0896
   -125.00    0.6066    1.1168
   -124.00    0.5935    1.1437
   -123.00    0.5797    1.1701
   -122.00    0.5652    1.1962
   -121.00    0.5500    1.2218
   -120.00    0.5343    1.2470
   -119.00    0.5179    1.2716
   -118.00    0.5009    1.2958
   -117.00    0.4835    1.3193
   -116.00    0.4654    1.3423
   -115.00    0.4469    1.3646
   -114.00    0.4279    1.3863
   -113.00    0.4085    1.4073
   -112.00    0.3887    1.4276
   -111.00    0.3684    1.4472
   -110.00    0.3478    1.4661
   -109.00    0.3268    1.4841
   -108.00    0.3051    1.5014
   -107.00    0.2836    1.5179
   -106.00    0.2618    1.5335
   -105.00    0.2397    1.5483
   -104.00    0.2175    1.5622
   -103.00    0.1950    1.5753
   -102.00    0.1724    1.5874
   -101.00    0.1497    1.5986
   -100.00    0.1268    1.6089
    -99.00    0.1039    1.6183
    -98.00    0.0809    1.6266
    -97.00    0.0579    1.6341
    -96.00    0.0348    1.6405
    -95.00    0.0118    1.6460
    -94.00   -0.0112    1.6505
    -93.00   -0.0341    1.6540
    -92.00   -0.0570    1.6565
    -91.00   -0.0797    1.6580
    -90.00   -0.1023    1.6585
    -89.00   -0.1248    1.6580
    -88.00   -0.1470    1.6565
    -87.00   -0.1691    1.6540
    -86.00   -0.1910    1.6505
    -85.00   -0.2126    1.6460
    -84.00   -0.2340    1.6405
    -83.00   -0.2551    1.6341
    -82.00   -0.2759    1.6266
    -81.00   -0.2964    1.6182
    -80.00   -0.3165    1.6089
    -79.00   -0.3363    1.5986
    -78.00   -0.3557    1.5874
    -77.00   -0.3747    1.5753
    -76.00   -0.3933    1.5622
    -75.00   -0.4115    1.5483
    -74.00   -0.4292    1.5335
    -73.00   -0.4465    1.5179
    -72.00   -0.4633    1.5014
    -71.00   -0.4796    1.4841
    -70.00   -0.4953    1.4660
    -69.00   -0.5106    1.4472
    -68.00   -0.5253    1.4276
    -67.00   -0.5395    1.4073
    -66.00   -0.5531    1.3863
    -65.00   -0.5661    1.3646
    -64.00   -0.5785    1.3422
    -63.00   -0.5904    1.3193
    -62.00   -0.6016    1.2957
    -61.00   -0.6121    1.2716
    -60.00   -0.6221    1.2470
    -59.00   -0.6314    1.2218
    -58.00   -0.6400    1.1962
    -57.00   -0.6479    1.1701
    -56.00   -0.6552    1.1436
    -55.00   -0.6618    1.1168
    -54.00   -0.6677    1.0895
    -53.00   -0.6729    1.0620
    -52.00   -0.6773    1.0342
    -51.00   -0.6811    1.0062
    -50.00   -0.6841    0.9779
    -49.00   -0.6864    0.9494
    -48.00   -0.6880    0.9208
    -47.00   -0.6888    0.8921
    -46.00   -0.6889    0.8634
    -45.00   -0.6883    0.8345
    -44.00   -0.6869    0.8057
    -43.00   -0.6847    0.7769
    -42.00   -0.6818    0.7482
    -41.00   -0.6782    0.7195
    -40.00   -0.6738    0.6910
    -39.00   -0.6687    0.6627
    -38.00   -0.6628    0.6346
    -37.00   -0.6562    0.6067
    -36.00   -0.6488    0.5791
    -35.00   -0.6407    0.5517
    -34.00   -0.6319    0.5248
    -33.00   -0.6224    0.4981
    -32.00   -0.6122    0.4719
    -31.00   -0.6013    0.4461
    -30.00   -0.5897    0.4208
    -29.00   -0.5775    0.3960
    -28.00   -0.5646    0.3717
    -27.00   -0.5512    0.3479
    -26.00   -0.5372    0.3248
    -25.00   -0.5227    0.3022
    -24.00   -0.5078    0.2802
    -23.00   -0.4925    0.2589
    -22.00   -0.4772    0.2382
    -21.00   -0.4619    0.2182
    -20.00   -0.4471    0.1989
    -19.00   -0.4333    0.1801
    -18.00   -0.4218    0.1620
    -17.00   -0.4142    0.1443
    -16.00   -0.4143    0.1269
    -15.00   -0.4290    0.1093
    -14.00   -0.4719    0.0908
    -13.00   -0.5667    0.0701
    -12.00   -0.7333    0.0469
    -11.00   -0.9127    0.0261
    -10.00   -0.9298    0.0158
     -9.50   -0.8862    0.0151
     -9.00   -0.8387    0.0146
     -8.50   -0.7899    0.0140
     -8.00   -0.7414    0.0133
     -7.50   -0.6924    0.0126
     -7.00   -0.6414    0.0119
     -6.50   -0.5854    0.0117
     -6.00   -0.5291    0.0116
     -5.50   -0.4724    0.0114
     -5.00   -0.4155    0.0113
     -4.50   -0.3583    0.0112
     -4.00   -0.3010    0.0111
     -3.50   -0.2435    0.0111
     -3.00   -0.1859    0.0110
     -2.50   -0.1282    0.0110
     -2.00   -0.0705    0.0109
     -1.50   -0.0127    0.0109
     -1.00    0.0451    0.0109
     -0.50    0.1029    0.0109
      0.00    0.1607    0.0110
      0.50    0.2183    0.0110
      1.00    0.2759    0.0111
      1.50    0.3334    0.0111
      2.00    0.3908    0.0112
      2.50    0.4480    0.0113
      3.00    0.5049    0.0114
      3.50    0.5617    0.0115
      4.00    0.6181    0.0117
      4.50    0.6743    0.0118
      5.00    0.7301    0.0120
      5.50    0.7854    0.0122
      6.00    0.8403    0.0124
      6.50    0.8946    0.0126
      7.00    0.9482    0.0129
      7.50    1.0010    0.0132
      8.00    1.0528    0.0135
      8.50    1.0990    0.0141
      9.00    1.1337    0.0152
      9.50    1.1589    0.0162
     10.00    1.1832    0.0175
     10.50    1.2146    0.0187
     11.00    1.2428    0.0202
     11.50    1.2674    0.0221
     12.00    1.2878    0.0244
     12.50    1.3072    0.0269
     13.00    1.3335    0.0290
     13.50    1.3559    0.0315
     14.00    1.3739    0.0344
     14.50    1.3886    0.0378
     15.00    1.4009    0.0416
     15.50    1.4119    0.0458
     16.00    1.4227    0.0501
     16.50    1.4293    0.0552
     17.00    1.4313    0.0609
     17.50    1.4294    0.0674
     18.00    1.4215    0.0750
     18.50    1.3976    0.0850
     19.00    1.3921    0.0927
     19.50    1.4001    0.0989
     20.00    1.4069    0.1052
     21.00    1.3382    0.1446
     22.00    1.3102    0.1664
     23.00    1.2831    0.1895
     24.00    1.2576    0.2135
     25.00    1.2343    0.2384
     26.00    1.2133    0.2641
     27.00    1.1949    0.2905
     28.00    1.1789    0.3174
     29.00    1.1652    0.3449
     30.00    1.1536    0.3728
     31.00    1.1439    0.4011
     32.00    1.1360    0.4299
     33.00    1.1295    0.4589
     34.00    1.1243    0.4882
     35.00    1.1201    0.5179
     36.00    1.1168    0.5477
     37.00    1.1141    0.5778
     38.00    1.1119    0.6080
     39.00    1.1100    0.6384
     40.00    1.1083    0.6689
     41.00    1.1067    0.6995
     42.00    1.1050    0.7301
     43.00    1.1032    0.7608
     44.00    1.1011    0.7914
     45.00    1.0986    0.8221
     46.00    1.0957    0.8527
     47.00    1.0924    0.8831
     48.00    1.0884    0.9135
     49.00    1.0839    0.9437
     50.00    1.0787    0.9737
     51.00    1.0727    1.0035
     52.00    1.0661    1.0330
     53.00    1.0586    1.0622
     54.00    1.0503    1.0911
     55.00    1.0412    1.1197
     56.00    1.0312    1.1479
     57.00    1.0203    1.1757
     58.00    1.0085    1.2030
     59.00    0.9958    1.2298
     60.00    0.9821    1.2561
     61.00    0.9676    1.2819
     62.00    0.9520    1.3072
     63.00    0.9356    1.3318
     64.00    0.9182    1.3558
     65.00    0.8998    1.3792
     66.00    0.8805    1.4018
     67.00    0.8603    1.4238
     68.00    0.8392    1.4450
     69.00    0.8172    1.4655
     70.00    0.7943    1.4852
     71.00    0.7704    1.5041
     72.00    0.7458    1.5222
     73.00    0.7203    1.5394
     74.00    0.6940    1.5558
     75.00    0.6669    1.5713
     76.00    0.6390    1.5858
     77.00    0.6103    1.5995
     78.00    0.5810    1.6122
     79.00    0.5510    1.6240
     80.00    0.5203    1.6348
     81.00    0.4890    1.6446
     82.00    0.4571    1.6534
     83.00    0.4247    1.6613
     84.00    0.3917    1.6681
     85.00    0.3583    1.6739
     86.00    0.3244    1.6787
     87.00    0.2901    1.6825
     88.00    0.2555    1.6852
     89.00    0.2205    1.6869
     90.00    0.1853    1.6876
     91.00    0.1499    1.6872
     92.00    0.1142    1.6858
     93.00    0.0785    1.6833
     94.00    0.0426    1.6798
     95.00    0.0067    1.6753
     96.00   -0.0292    1.6698
     97.00   -0.0651    1.6633
     98.00   -0.1008    1.6557
     99.00   -0.1365    1.6472
    100.00   -0.1719    1.6377
    101.00   -0.2071    1.6272
    102.00   -0.2420    1.6157
    103.00   -0.2766    1.6033
    104.00   -0.3108    1.5900
    105.00   -0.3446    1.5758
    106.00   -0.3778    1.5606
    107.00   -0.4106    1.5446
    108.00   -0.4428    1.5277
    109.00   -0.4867    1.5100
    110.00   -0.5174    1.4915
    111.00   -0.5474    1.4722
    112.00   -0.5766    1.4522
    113.00   -0.6050    1.4313
    114.00   -0.6327    1.4098
    115.00   -0.6595    1.3876
    116.00   -0.6853    1.3647
    117.00   -0.7103    1.3412
    118.00   -0.7343    1.3171
    119.00   -0.7573    1.2924
    120.00   -0.7792    1.2672
    121.00   -0.8001    1.2414
    122.00   -0.8198    1.2152
    123.00   -0.8385    1.1885
    124.00   -0.8559    1.1614
    125.00   -0.8722    1.1339
    126.00   -0.8873    1.1061
    127.00   -0.9012    1.0780
    128.00   -0.9138    1.0496
    129.00   -0.9252    1.0209
    130.00   -0.9353    0.9920
    131.00   -0.9441    0.9629
    132.00   -0.9516    0.9338
    133.00   -0.9578    0.9045
    134.00   -0.9626    0.8751
    135.00   -0.9662    0.8457
    136.00   -0.9684    0.8163
    137.00   -0.9693    0.7870
    138.00   -0.9689    0.7577
    139.00   -0.9672    0.7285
    140.00   -0.9642    0.6995
    141.00   -0.9598    0.6707
    142.00   -0.9542    0.6420
    143.00   -0.9473    0.6137
    144.00   -0.9392    0.5856
    145.00   -0.9299    0.5578
    146.00   -0.9193    0.5305
    147.00   -0.9075    0.5034
    148.00   -0.8947    0.4769
    149.00   -0.8806    0.4507
    150.00   -0.8655    0.4251
    151.00   -0.8494    0.3999
    152.00   -0.8323    0.3754
    153.00   -0.8142    0.3513
    154.00   -0.7952    0.3279
    155.00   -0.7754    0.3052
    156.00   -0.7549    0.2831
    157.00   -0.7337    0.2617
    158.00   -0.7120    0.2410
    159.00   -0.6898    0.2210
    160.00   -0.6673    0.2018
    161.00   -0.6448    0.1834
    162.00   -0.6225    0.1658
    163.00   -0.6006    0.1490
    164.00   -0.5797    0.1331
    165.00   -0.5602    0.1180
    166.00   -0.5430    0.1039
    167.00   -0.5289    0.0906
    168.00   -0.5192    0.0783
    169.00   -0.5154    0.0669
    170.00   -0.5182    0.0564
    171.00   -0.5273    0.0469
    172.00   -0.5381    0.0384
    173.00   -0.5408    0.0308
    174.00   -0.5221    0.0243
    175.00   -0.4746    0.0187
    176.00   -0.4021    0.0141
    177.00   -0.3158    0.0106
    178.00   -0.2245    0.0080
    179.00   -0.1325    0.0065
    180.00   -0.0405    0.0060
    180.00   -0.0405    0.0060
