AeroDyn airfoil file Created with QBlade v0.91b 32-Bit on 03.06.2016 at 15:35:24 Compatible with AeroDyn v13.0.
Polar "T1_Re2.000_M0.00_N9.0 360 M" on Foil "T1_Re2.000_M0.00_N9.0" :: generated by QBlade
1              Number of airfoil tables in this file
0              Table ID parameter
19.50          Stall angle (deg)
0              No longer used, enter zero
0              No longer used, enter zero
0              No longer used, enter zero
-1.56          Angle of attack for zero Cn for linear Cn curve (deg)
6.66753        Cn slope for zero lift for linear Cn curve (1/rad)
-0.7152        Cn at stall value for positive angle of attack for linear Cn curve
-0.9213        Cn at stall value for negative angle of attack for linear Cn curve
-0.50          Angle of attack for minimum CD (deg)
0.0049         Minimum CD value
   -180.00   -0.0461    0.0060
   -179.00    0.0478    0.0065
   -178.00    0.1416    0.0081
   -177.00    0.2355    0.0106
   -176.00    0.3294    0.0143
   -175.00    0.4225    0.0189
   -174.00    0.5086    0.0245
   -173.00    0.5706    0.0312
   -172.00    0.5897    0.0388
   -171.00    0.5664    0.0475
   -170.00    0.5237    0.0571
   -169.00    0.4849    0.0677
   -168.00    0.4593    0.0792
   -167.00    0.4471    0.0917
   -166.00    0.4452    0.1051
   -165.00    0.4503    0.1195
   -164.00    0.4601    0.1347
   -163.00    0.4729    0.1507
   -162.00    0.4874    0.1677
   -161.00    0.5029    0.1854
   -160.00    0.5188    0.2040
   -159.00    0.5348    0.2233
   -158.00    0.5506    0.2434
   -157.00    0.5660    0.2642
   -156.00    0.5809    0.2858
   -155.00    0.5951    0.3080
   -154.00    0.6085    0.3309
   -153.00    0.6212    0.3544
   -152.00    0.6329    0.3785
   -151.00    0.6439    0.4032
   -150.00    0.6539    0.4284
   -149.00    0.6629    0.4542
   -148.00    0.6710    0.4804
   -147.00    0.6782    0.5070
   -146.00    0.6844    0.5341
   -145.00    0.6896    0.5615
   -144.00    0.6938    0.5893
   -143.00    0.6970    0.6174
   -142.00    0.6993    0.6458
   -141.00    0.7005    0.6744
   -140.00    0.7009    0.7032
   -139.00    0.7002    0.7322
   -138.00    0.6986    0.7613
   -137.00    0.6961    0.7906
   -136.00    0.6927    0.8199
   -135.00    0.6883    0.8492
   -134.00    0.6831    0.8785
   -133.00    0.6770    0.9078
   -132.00    0.6700    0.9370
   -131.00    0.6621    0.9661
   -130.00    0.6535    0.9951
   -129.00    0.6440    1.0238
   -128.00    0.6338    1.0524
   -127.00    0.6228    1.0807
   -126.00    0.6110    1.1087
   -125.00    0.5985    1.1364
   -124.00    0.5854    1.1637
   -123.00    0.5715    1.1907
   -122.00    0.5570    1.2172
   -121.00    0.5419    1.2433
   -120.00    0.5262    1.2689
   -119.00    0.5099    1.2940
   -118.00    0.4931    1.3185
   -117.00    0.4757    1.3425
   -116.00    0.4579    1.3658
   -115.00    0.4395    1.3886
   -114.00    0.4207    1.4106
   -113.00    0.4015    1.4320
   -112.00    0.3819    1.4527
   -111.00    0.3619    1.4726
   -110.00    0.3416    1.4918
   -109.00    0.3210    1.5102
   -108.00    0.3000    1.5278
   -107.00    0.2788    1.5446
   -106.00    0.2569    1.5605
   -105.00    0.2353    1.5755
   -104.00    0.2134    1.5897
   -103.00    0.1913    1.6030
   -102.00    0.1692    1.6153
   -101.00    0.1469    1.6267
   -100.00    0.1244    1.6372
    -99.00    0.1020    1.6467
    -98.00    0.0794    1.6553
    -97.00    0.0569    1.6628
    -96.00    0.0343    1.6694
    -95.00    0.0117    1.6750
    -94.00   -0.0108    1.6795
    -93.00   -0.0332    1.6831
    -92.00   -0.0556    1.6856
    -91.00   -0.0779    1.6872
    -90.00   -0.1000    1.6877
    -89.00   -0.1220    1.6872
    -88.00   -0.1438    1.6856
    -87.00   -0.1654    1.6831
    -86.00   -0.1869    1.6795
    -85.00   -0.2081    1.6750
    -84.00   -0.2290    1.6694
    -83.00   -0.2497    1.6628
    -82.00   -0.2701    1.6552
    -81.00   -0.2902    1.6467
    -80.00   -0.3100    1.6372
    -79.00   -0.3294    1.6267
    -78.00   -0.3485    1.6153
    -77.00   -0.3672    1.6029
    -76.00   -0.3855    1.5897
    -75.00   -0.4034    1.5755
    -74.00   -0.4209    1.5604
    -73.00   -0.4379    1.5445
    -72.00   -0.4545    1.5278
    -71.00   -0.4706    1.5102
    -70.00   -0.4862    1.4918
    -69.00   -0.5014    1.4726
    -68.00   -0.5160    1.4526
    -67.00   -0.5301    1.4320
    -66.00   -0.5436    1.4106
    -65.00   -0.5566    1.3885
    -64.00   -0.5690    1.3657
    -63.00   -0.5808    1.3424
    -62.00   -0.5921    1.3184
    -61.00   -0.6027    1.2939
    -60.00   -0.6127    1.2688
    -59.00   -0.6221    1.2432
    -58.00   -0.6309    1.2171
    -57.00   -0.6390    1.1905
    -56.00   -0.6464    1.1636
    -55.00   -0.6532    1.1362
    -54.00   -0.6593    1.1085
    -53.00   -0.6647    1.0805
    -52.00   -0.6695    1.0522
    -51.00   -0.6735    1.0236
    -50.00   -0.6768    0.9948
    -49.00   -0.6795    0.9659
    -48.00   -0.6814    0.9368
    -47.00   -0.6826    0.9075
    -46.00   -0.6830    0.8782
    -45.00   -0.6828    0.8489
    -44.00   -0.6818    0.8195
    -43.00   -0.6801    0.7902
    -42.00   -0.6776    0.7609
    -41.00   -0.6745    0.7318
    -40.00   -0.6706    0.7027
    -39.00   -0.6659    0.6739
    -38.00   -0.6606    0.6452
    -37.00   -0.6546    0.6168
    -36.00   -0.6478    0.5886
    -35.00   -0.6404    0.5608
    -34.00   -0.6323    0.5332
    -33.00   -0.6236    0.5061
    -32.00   -0.6142    0.4793
    -31.00   -0.6043    0.4530
    -30.00   -0.5938    0.4271
    -29.00   -0.5828    0.4018
    -28.00   -0.5714    0.3769
    -27.00   -0.5596    0.3525
    -26.00   -0.5477    0.3287
    -25.00   -0.5357    0.3055
    -24.00   -0.5239    0.2828
    -23.00   -0.5127    0.2607
    -22.00   -0.5025    0.2392
    -21.00   -0.4940    0.2182
    -20.00   -0.4884    0.1976
    -19.00   -0.4872    0.1775
    -18.00   -0.4932    0.1575
    -17.00   -0.5103    0.1376
    -16.00   -0.5448    0.1172
    -15.00   -0.6052    0.0961
    -14.00   -0.6995    0.0741
    -13.00   -0.8242    0.0520
    -12.00   -0.9450    0.0327
    -11.00   -1.0018    0.0201
    -10.00   -0.9333    0.0124
     -9.50   -0.8820    0.0120
     -9.00   -0.8286    0.0117
     -8.50   -0.7745    0.0114
     -8.00   -0.7207    0.0111
     -7.50   -0.6692    0.0103
     -7.00   -0.6157    0.0097
     -6.50   -0.5615    0.0091
     -6.00   -0.5052    0.0088
     -5.50   -0.4495    0.0085
     -5.00   -0.3930    0.0081
     -4.50   -0.3374    0.0076
     -4.00   -0.2816    0.0068
     -3.50   -0.2264    0.0059
     -3.00   -0.1689    0.0054
     -2.50   -0.1108    0.0052
     -2.00   -0.0521    0.0051
     -1.50    0.0066    0.0050
     -1.00    0.0653    0.0049
     -0.50    0.1244    0.0049
      0.00    0.1829    0.0050
      0.50    0.2421    0.0050
      1.00    0.3004    0.0050
      1.50    0.3594    0.0051
      2.00    0.4176    0.0052
      3.00    0.5331    0.0055
      3.50    0.5903    0.0057
      4.00    0.6452    0.0062
      4.50    0.6971    0.0071
      5.00    0.7465    0.0083
      5.50    0.7988    0.0090
      6.00    0.8507    0.0098
      6.50    0.9036    0.0103
      7.00    0.9566    0.0108
      7.50    1.0091    0.0114
      8.00    1.0598    0.0120
      8.50    1.1076    0.0129
      9.00    1.1592    0.0133
      9.50    1.2095    0.0137
     10.00    1.2554    0.0144
     10.50    1.2950    0.0153
     11.00    1.3259    0.0162
     11.50    1.3560    0.0175
     12.00    1.3753    0.0192
     12.50    1.3895    0.0214
     13.00    1.3989    0.0244
     13.50    1.4011    0.0283
     14.00    1.3931    0.0336
     14.50    1.4010    0.0378
     15.00    1.4220    0.0407
     15.50    1.4422    0.0440
     16.00    1.4617    0.0475
     16.50    1.4807    0.0512
     17.00    1.4990    0.0551
     17.50    1.5172    0.0592
     18.00    1.5307    0.0640
     18.50    1.5408    0.0696
     19.00    1.5470    0.0758
     19.50    1.5487    0.0829
     20.00    1.5439    0.0910
     20.50    1.5315    0.1009
     21.00    1.5077    0.1131
     21.50    1.4662    0.1291
     22.00    1.4158    0.1476
     22.50    1.3612    0.1681
     23.00    1.2967    0.1926
     23.50    1.2306    0.2191
     24.00    1.2019    0.2275
     25.00    1.1528    0.2564
     26.00    1.1139    0.2854
     27.00    1.0838    0.3144
     28.00    1.0611    0.3433
     29.00    1.0445    0.3723
     30.00    1.0330    0.4014
     31.00    1.0255    0.4306
     32.00    1.0211    0.4598
     33.00    1.0193    0.4893
     34.00    1.0194    0.5189
     35.00    1.0209    0.5486
     36.00    1.0234    0.5785
     37.00    1.0267    0.6085
     38.00    1.0304    0.6387
     39.00    1.0343    0.6690
     40.00    1.0383    0.6994
     41.00    1.0420    0.7298
     42.00    1.0455    0.7604
     43.00    1.0486    0.7909
     44.00    1.0511    0.8215
     45.00    1.0531    0.8521
     46.00    1.0544    0.8826
     47.00    1.0549    0.9130
     48.00    1.0546    0.9433
     49.00    1.0535    0.9735
     50.00    1.0515    1.0035
     51.00    1.0486    1.0333
     52.00    1.0447    1.0628
     53.00    1.0398    1.0921
     54.00    1.0340    1.1210
     55.00    1.0270    1.1496
     56.00    1.0191    1.1779
     57.00    1.0101    1.2057
     58.00    1.0000    1.2331
     59.00    0.9889    1.2601
     60.00    0.9766    1.2865
     61.00    0.9633    1.3124
     62.00    0.9490    1.3377
     63.00    0.9335    1.3624
     64.00    0.9170    1.3866
     65.00    0.8994    1.4100
     66.00    0.8808    1.4328
     67.00    0.8611    1.4549
     68.00    0.8405    1.4762
     69.00    0.8188    1.4968
     70.00    0.7961    1.5166
     71.00    0.7724    1.5356
     72.00    0.7478    1.5538
     73.00    0.7223    1.5711
     74.00    0.6959    1.5875
     75.00    0.6686    1.6031
     76.00    0.6405    1.6177
     77.00    0.6115    1.6314
     78.00    0.5818    1.6442
     79.00    0.5513    1.6560
     80.00    0.5201    1.6668
     81.00    0.4882    1.6766
     82.00    0.4557    1.6855
     83.00    0.4226    1.6933
     84.00    0.3889    1.7001
     85.00    0.3547    1.7059
     86.00    0.3200    1.7107
     87.00    0.2848    1.7144
     88.00    0.2493    1.7170
     89.00    0.2134    1.7186
     90.00    0.1773    1.7192
     91.00    0.1408    1.7187
     92.00    0.1042    1.7172
     93.00    0.0674    1.7146
     94.00    0.0305    1.7109
     95.00   -0.0065    1.7063
     96.00   -0.0435    1.7006
     97.00   -0.0804    1.6938
     98.00   -0.1173    1.6861
     99.00   -0.1540    1.6773
    100.00   -0.1905    1.6675
    101.00   -0.2268    1.6568
    102.00   -0.2628    1.6451
    103.00   -0.2985    1.6324
    104.00   -0.3337    1.6188
    105.00   -0.3685    1.6042
    106.00   -0.4029    1.5888
    107.00   -0.4397    1.5724
    108.00   -0.4729    1.5552
    109.00   -0.5054    1.5372
    110.00   -0.5372    1.5183
    111.00   -0.5683    1.4986
    112.00   -0.5987    1.4781
    113.00   -0.6282    1.4569
    114.00   -0.6568    1.4350
    115.00   -0.6846    1.4124
    116.00   -0.7114    1.3890
    117.00   -0.7373    1.3651
    118.00   -0.7621    1.3405
    119.00   -0.7859    1.3154
    120.00   -0.8086    1.2897
    121.00   -0.8302    1.2634
    122.00   -0.8506    1.2367
    123.00   -0.8699    1.2096
    124.00   -0.8879    1.1820
    125.00   -0.9047    1.1540
    126.00   -0.9203    1.1256
    127.00   -0.9345    1.0970
    128.00   -0.9475    1.0681
    129.00   -0.9592    1.0389
    130.00   -0.9695    1.0095
    131.00   -0.9785    0.9799
    132.00   -0.9861    0.9502
    133.00   -0.9924    0.9203
    134.00   -0.9973    0.8905
    135.00   -1.0008    0.8605
    136.00   -1.0030    0.8306
    137.00   -1.0038    0.8007
    138.00   -1.0032    0.7709
    139.00   -1.0012    0.7413
    140.00   -0.9979    0.7117
    141.00   -0.9933    0.6824
    142.00   -0.9873    0.6533
    143.00   -0.9800    0.6244
    144.00   -0.9714    0.5958
    145.00   -0.9616    0.5676
    146.00   -0.9505    0.5397
    147.00   -0.9382    0.5122
    148.00   -0.9247    0.4851
    149.00   -0.9101    0.4585
    150.00   -0.8944    0.4324
    151.00   -0.8776    0.4069
    152.00   -0.8598    0.3819
    153.00   -0.8411    0.3574
    154.00   -0.8215    0.3336
    155.00   -0.8011    0.3104
    156.00   -0.7800    0.2879
    157.00   -0.7584    0.2662
    158.00   -0.7363    0.2451
    159.00   -0.7141    0.2248
    160.00   -0.6918    0.2052
    161.00   -0.6699    0.1865
    162.00   -0.6488    0.1686
    163.00   -0.6291    0.1515
    164.00   -0.6118    0.1353
    165.00   -0.5980    0.1200
    166.00   -0.5896    0.1056
    167.00   -0.5890    0.0921
    168.00   -0.5990    0.0795
    169.00   -0.6216    0.0679
    170.00   -0.6547    0.0573
    171.00   -0.6869    0.0476
    172.00   -0.6970    0.0389
    173.00   -0.6677    0.0312
    174.00   -0.6014    0.0246
    175.00   -0.5147    0.0189
    176.00   -0.4216    0.0143
    177.00   -0.3277    0.0107
    178.00   -0.2338    0.0081
    179.00   -0.1400    0.0065
    180.00   -0.0461    0.0060
    180.00   -0.0461    0.0060
