AeroDyn airfoil file Created with QBlade v0.91b 32-Bit on 03.06.2016 at 15:43:23 Compatible with AeroDyn v13.0.
Polar "T1_Re2.900_M0.00_N9.0 360 M" on Foil "T1_Re2.900_M0.00_N9.0" :: generated by QBlade
1              Number of airfoil tables in this file
0              Table ID parameter
19.50          Stall angle (deg)
0              No longer used, enter zero
0              No longer used, enter zero
0              No longer used, enter zero
-1.53          Angle of attack for zero Cn for linear Cn curve (deg)
6.86224        Cn slope for zero lift for linear Cn curve (1/rad)
0.7180         Cn at stall value for positive angle of attack for linear Cn curve
-0.8331        Cn at stall value for negative angle of attack for linear Cn curve
-0.50          Angle of attack for minimum CD (deg)
0.0051         Minimum CD value
   -180.00   -0.0446    0.0060
   -179.00    0.0516    0.0065
   -178.00    0.1479    0.0080
   -177.00    0.2441    0.0106
   -176.00    0.3404    0.0141
   -175.00    0.4366    0.0187
   -174.00    0.5328    0.0242
   -173.00    0.6239    0.0308
   -172.00    0.6903    0.0383
   -171.00    0.7033    0.0468
   -170.00    0.6585    0.0562
   -169.00    0.5889    0.0666
   -168.00    0.5285    0.0780
   -167.00    0.4895    0.0903
   -166.00    0.4694    0.1034
   -165.00    0.4630    0.1175
   -164.00    0.4654    0.1324
   -163.00    0.4734    0.1482
   -162.00    0.4847    0.1649
   -161.00    0.4980    0.1823
   -160.00    0.5123    0.2005
   -159.00    0.5272    0.2196
   -158.00    0.5420    0.2393
   -157.00    0.5567    0.2598
   -156.00    0.5710    0.2810
   -155.00    0.5847    0.3028
   -154.00    0.5977    0.3253
   -153.00    0.6100    0.3484
   -152.00    0.6214    0.3721
   -151.00    0.6321    0.3964
   -150.00    0.6418    0.4211
   -149.00    0.6506    0.4464
   -148.00    0.6585    0.4722
   -147.00    0.6655    0.4984
   -146.00    0.6715    0.5250
   -145.00    0.6765    0.5519
   -144.00    0.6806    0.5792
   -143.00    0.6837    0.6068
   -142.00    0.6859    0.6347
   -141.00    0.6871    0.6628
   -140.00    0.6874    0.6912
   -139.00    0.6868    0.7196
   -138.00    0.6852    0.7483
   -137.00    0.6826    0.7770
   -136.00    0.6792    0.8058
   -135.00    0.6749    0.8346
   -134.00    0.6697    0.8634
   -133.00    0.6637    0.8922
   -132.00    0.6568    0.9209
   -131.00    0.6491    0.9495
   -130.00    0.6406    0.9779
   -129.00    0.6313    1.0062
   -128.00    0.6212    1.0343
   -127.00    0.6104    1.0621
   -126.00    0.5988    1.0896
   -125.00    0.5866    1.1168
   -124.00    0.5736    1.1437
   -123.00    0.5600    1.1701
   -122.00    0.5458    1.1962
   -121.00    0.5310    1.2218
   -120.00    0.5156    1.2470
   -119.00    0.4996    1.2716
   -118.00    0.4831    1.2957
   -117.00    0.4660    1.3193
   -116.00    0.4485    1.3423
   -115.00    0.4305    1.3646
   -114.00    0.4121    1.3863
   -113.00    0.3933    1.4073
   -112.00    0.3741    1.4276
   -111.00    0.3545    1.4472
   -110.00    0.3345    1.4660
   -109.00    0.3143    1.4841
   -108.00    0.2938    1.5014
   -107.00    0.2730    1.5179
   -106.00    0.2520    1.5335
   -105.00    0.2307    1.5483
   -104.00    0.2090    1.5622
   -103.00    0.1874    1.5753
   -102.00    0.1656    1.5874
   -101.00    0.1438    1.5986
   -100.00    0.1218    1.6089
    -99.00    0.0998    1.6182
    -98.00    0.0777    1.6266
    -97.00    0.0556    1.6341
    -96.00    0.0335    1.6405
    -95.00    0.0114    1.6460
    -94.00   -0.0106    1.6505
    -93.00   -0.0326    1.6540
    -92.00   -0.0545    1.6565
    -91.00   -0.0763    1.6580
    -90.00   -0.0980    1.6585
    -89.00   -0.1195    1.6580
    -88.00   -0.1409    1.6565
    -87.00   -0.1621    1.6540
    -86.00   -0.1830    1.6505
    -85.00   -0.2038    1.6460
    -84.00   -0.2243    1.6405
    -83.00   -0.2446    1.6340
    -82.00   -0.2646    1.6266
    -81.00   -0.2842    1.6182
    -80.00   -0.3036    1.6089
    -79.00   -0.3227    1.5986
    -78.00   -0.3413    1.5874
    -77.00   -0.3597    1.5752
    -76.00   -0.3776    1.5622
    -75.00   -0.3952    1.5483
    -74.00   -0.4123    1.5335
    -73.00   -0.4290    1.5178
    -72.00   -0.4453    1.5014
    -71.00   -0.4610    1.4841
    -70.00   -0.4764    1.4660
    -69.00   -0.4912    1.4471
    -68.00   -0.5055    1.4275
    -67.00   -0.5194    1.4072
    -66.00   -0.5326    1.3862
    -65.00   -0.5454    1.3645
    -64.00   -0.5576    1.3422
    -63.00   -0.5692    1.3192
    -62.00   -0.5802    1.2956
    -61.00   -0.5907    1.2715
    -60.00   -0.6005    1.2469
    -59.00   -0.6098    1.2217
    -58.00   -0.6184    1.1961
    -57.00   -0.6263    1.1700
    -56.00   -0.6337    1.1435
    -55.00   -0.6404    1.1166
    -54.00   -0.6464    1.0894
    -53.00   -0.6517    1.0619
    -52.00   -0.6564    1.0341
    -51.00   -0.6604    1.0060
    -50.00   -0.6637    0.9777
    -49.00   -0.6663    0.9493
    -48.00   -0.6682    0.9207
    -47.00   -0.6694    0.8919
    -46.00   -0.6699    0.8631
    -45.00   -0.6697    0.8343
    -44.00   -0.6688    0.8055
    -43.00   -0.6672    0.7766
    -42.00   -0.6648    0.7479
    -41.00   -0.6617    0.7192
    -40.00   -0.6580    0.6907
    -39.00   -0.6535    0.6623
    -38.00   -0.6483    0.6342
    -37.00   -0.6424    0.6062
    -36.00   -0.6358    0.5786
    -35.00   -0.6286    0.5512
    -34.00   -0.6207    0.5242
    -33.00   -0.6122    0.4975
    -32.00   -0.6030    0.4712
    -31.00   -0.5933    0.4454
    -30.00   -0.5830    0.4200
    -29.00   -0.5722    0.3950
    -28.00   -0.5610    0.3706
    -27.00   -0.5495    0.3467
    -26.00   -0.5378    0.3233
    -25.00   -0.5259    0.3005
    -24.00   -0.5143    0.2783
    -23.00   -0.5031    0.2566
    -22.00   -0.4929    0.2355
    -21.00   -0.4842    0.2150
    -20.00   -0.4782    0.1949
    -19.00   -0.4763    0.1753
    -18.00   -0.4809    0.1559
    -17.00   -0.4959    0.1367
    -16.00   -0.5270    0.1172
    -15.00   -0.5826    0.0971
    -14.00   -0.6719    0.0762
    -13.00   -0.7955    0.0549
    -12.00   -0.9260    0.0358
    -11.00   -1.0028    0.0223
    -10.00   -0.9848    0.0160
     -9.00   -0.8418    0.0111
     -8.50   -0.7914    0.0104
     -8.00   -0.7376    0.0100
     -7.50   -0.6842    0.0095
     -7.00   -0.6303    0.0090
     -6.50   -0.5763    0.0084
     -6.00   -0.5204    0.0080
     -5.50   -0.4645    0.0074
     -5.00   -0.4090    0.0068
     -4.50   -0.3522    0.0062
     -4.00   -0.2948    0.0057
     -3.50   -0.2360    0.0055
     -3.00   -0.1761    0.0053
     -2.50   -0.1162    0.0052
     -2.00   -0.0562    0.0052
     -1.50    0.0039    0.0051
     -1.00    0.0645    0.0051
     -0.50    0.1245    0.0051
      0.00    0.1845    0.0051
      0.50    0.2451    0.0052
      1.00    0.3050    0.0052
      1.50    0.3647    0.0052
      2.00    0.4251    0.0053
      2.50    0.4846    0.0054
      3.00    0.5441    0.0055
      3.50    0.6029    0.0056
      4.00    0.6618    0.0058
      4.50    0.7197    0.0060
      5.00    0.7748    0.0065
      5.50    0.8280    0.0071
      6.00    0.8799    0.0079
      6.50    0.9284    0.0088
      7.00    0.9787    0.0096
      7.50    1.0287    0.0102
      8.00    1.0761    0.0110
      8.50    1.1226    0.0118
      9.00    1.1679    0.0125
      9.50    1.2127    0.0132
     10.00    1.2510    0.0140
     11.50    1.3465    0.0166
     12.00    1.3770    0.0178
     12.50    1.4030    0.0194
     13.00    1.4205    0.0218
     14.00    1.4489    0.0268
     14.50    1.4723    0.0292
     15.00    1.4945    0.0319
     15.50    1.5147    0.0348
     16.00    1.5348    0.0378
     16.50    1.5499    0.0414
     17.00    1.5640    0.0454
     17.50    1.5807    0.0492
     18.00    1.5912    0.0538
     18.50    1.5988    0.0588
     19.00    1.6098    0.0636
     19.50    1.6109    0.0698
     20.00    1.6073    0.0769
     20.50    1.5990    0.0847
     21.00    1.5729    0.0954
     21.50    1.5530    0.1057
     22.00    1.5303    0.1167
     22.50    1.5018    0.1289
     23.00    1.4726    0.1415
     23.50    1.4441    0.1546
     24.50    1.3919    0.1807
     25.00    1.3697    0.1935
     26.00    1.3329    0.2549
     27.00    1.3002    0.2825
     28.00    1.2715    0.3105
     29.00    1.2467    0.3390
     30.00    1.2255    0.3679
     31.00    1.2075    0.3971
     32.00    1.1924    0.4265
     33.00    1.1798    0.4563
     34.00    1.1694    0.4862
     35.00    1.1609    0.5163
     36.00    1.1538    0.5466
     37.00    1.1480    0.5771
     38.00    1.1432    0.6076
     39.00    1.1391    0.6383
     40.00    1.1356    0.6691
     41.00    1.1324    0.6999
     42.00    1.1295    0.7307
     43.00    1.1266    0.7615
     44.00    1.1236    0.7923
     45.00    1.1204    0.8231
     46.00    1.1169    0.8537
     47.00    1.1131    0.8843
     48.00    1.1087    0.9147
     49.00    1.1039    0.9449
     50.00    1.0984    0.9750
     51.00    1.0922    1.0048
     52.00    1.0853    1.0343
     53.00    1.0777    1.0636
     54.00    1.0692    1.0925
     55.00    1.0600    1.1210
     56.00    1.0498    1.1492
     57.00    1.0388    1.1770
     58.00    1.0268    1.2043
     59.00    1.0139    1.2311
     60.00    1.0001    1.2574
     61.00    0.9853    1.2832
     62.00    0.9696    1.3084
     63.00    0.9529    1.3330
     64.00    0.9352    1.3570
     65.00    0.9166    1.3803
     66.00    0.8970    1.4030
     67.00    0.8765    1.4249
     68.00    0.8550    1.4461
     69.00    0.8326    1.4666
     70.00    0.8093    1.4862
     71.00    0.7850    1.5051
     72.00    0.7599    1.5232
     73.00    0.7339    1.5404
     74.00    0.7071    1.5567
     75.00    0.6794    1.5721
     76.00    0.6510    1.5867
     77.00    0.6218    1.6003
     78.00    0.5918    1.6130
     79.00    0.5612    1.6248
     80.00    0.5298    1.6355
     81.00    0.4978    1.6453
     82.00    0.4652    1.6541
     83.00    0.4321    1.6620
     84.00    0.3984    1.6688
     85.00    0.3642    1.6746
     86.00    0.3296    1.6793
     87.00    0.2945    1.6831
     88.00    0.2591    1.6858
     89.00    0.2233    1.6875
     90.00    0.1873    1.6881
     91.00    0.1510    1.6877
     92.00    0.1146    1.6863
     93.00    0.0780    1.6838
     94.00    0.0413    1.6803
     95.00    0.0045    1.6758
     96.00   -0.0322    1.6702
     97.00   -0.0689    1.6637
     98.00   -0.1055    1.6561
     99.00   -0.1419    1.6476
    100.00   -0.1782    1.6380
    101.00   -0.2142    1.6275
    102.00   -0.2499    1.6161
    103.00   -0.2853    1.6036
    104.00   -0.3202    1.5903
    105.00   -0.3661    1.5761
    106.00   -0.3999    1.5609
    107.00   -0.4331    1.5449
    108.00   -0.4657    1.5280
    109.00   -0.4978    1.5103
    110.00   -0.5291    1.4918
    111.00   -0.5597    1.4725
    112.00   -0.5896    1.4524
    113.00   -0.6187    1.4316
    114.00   -0.6469    1.4100
    115.00   -0.6742    1.3878
    116.00   -0.7006    1.3649
    117.00   -0.7261    1.3414
    118.00   -0.7505    1.3173
    119.00   -0.7739    1.2926
    120.00   -0.7962    1.2673
    121.00   -0.8174    1.2416
    122.00   -0.8375    1.2153
    123.00   -0.8565    1.1886
    124.00   -0.8742    1.1615
    125.00   -0.8907    1.1341
    126.00   -0.9060    1.1062
    127.00   -0.9200    1.0781
    128.00   -0.9327    1.0496
    129.00   -0.9442    1.0210
    130.00   -0.9543    0.9921
    131.00   -0.9631    0.9630
    132.00   -0.9706    0.9338
    133.00   -0.9767    0.9045
    134.00   -0.9815    0.8752
    135.00   -0.9849    0.8458
    136.00   -0.9870    0.8164
    137.00   -0.9877    0.7870
    138.00   -0.9871    0.7577
    139.00   -0.9851    0.7286
    140.00   -0.9818    0.6995
    141.00   -0.9772    0.6707
    142.00   -0.9712    0.6421
    143.00   -0.9640    0.6137
    144.00   -0.9555    0.5856
    145.00   -0.9458    0.5579
    146.00   -0.9348    0.5305
    147.00   -0.9226    0.5035
    148.00   -0.9093    0.4769
    149.00   -0.8949    0.4507
    150.00   -0.8794    0.4251
    151.00   -0.8629    0.4000
    152.00   -0.8454    0.3754
    153.00   -0.8270    0.3514
    154.00   -0.8078    0.3280
    155.00   -0.7879    0.3052
    156.00   -0.7674    0.2831
    157.00   -0.7464    0.2617
    158.00   -0.7252    0.2410
    159.00   -0.7040    0.2210
    160.00   -0.6832    0.2018
    161.00   -0.6633    0.1834
    162.00   -0.6450    0.1658
    163.00   -0.6295    0.1490
    164.00   -0.6183    0.1331
    165.00   -0.6141    0.1180
    166.00   -0.6204    0.1039
    167.00   -0.6419    0.0906
    168.00   -0.6828    0.0783
    169.00   -0.7411    0.0669
    170.00   -0.7988    0.0564
    171.00   -0.8222    0.0469
    172.00   -0.7902    0.0384
    173.00   -0.7151    0.0308
    174.00   -0.6221    0.0243
    175.00   -0.5259    0.0187
    176.00   -0.4296    0.0141
    177.00   -0.3334    0.0106
    178.00   -0.2371    0.0080
    179.00   -0.1409    0.0065
    180.00   -0.0446    0.0060
    180.00   -0.0446    0.0060
