AeroDyn airfoil file Created with QBlade v0.91b 32-Bit on 03.06.2016 at 16:01:40 Compatible with AeroDyn v13.0.
Polar "T1_Re3.200_M0.00_N9.0 360 M" on Foil "T1_Re3.200_M0.00_N9.0" :: generated by QBlade
1              Number of airfoil tables in this file
0              Table ID parameter
25.00          Stall angle (deg)
0              No longer used, enter zero
0              No longer used, enter zero
0              No longer used, enter zero
-1.45          Angle of attack for zero Cn for linear Cn curve (deg)
7.16474        Cn slope for zero lift for linear Cn curve (1/rad)
1.2446         Cn at stall value for positive angle of attack for linear Cn curve
-0.9060        Cn at stall value for negative angle of attack for linear Cn curve
-1.50          Angle of attack for minimum CD (deg)
0.0064         Minimum CD value
   -180.00   -0.0403    0.0060
   -179.00    0.0598    0.0065
   -178.00    0.1599    0.0079
   -177.00    0.2599    0.0104
   -176.00    0.3600    0.0138
   -175.00    0.4601    0.0181
   -174.00    0.5602    0.0234
   -173.00    0.6570    0.0297
   -172.00    0.7318    0.0369
   -171.00    0.7508    0.0450
   -170.00    0.7013    0.0540
   -169.00    0.6179    0.0640
   -168.00    0.5431    0.0748
   -167.00    0.4932    0.0866
   -166.00    0.4659    0.0992
   -165.00    0.4548    0.1126
   -164.00    0.4539    0.1269
   -163.00    0.4595    0.1420
   -162.00    0.4691    0.1579
   -161.00    0.4809    0.1746
   -160.00    0.4941    0.1920
   -159.00    0.5079    0.2102
   -158.00    0.5218    0.2291
   -157.00    0.5357    0.2486
   -156.00    0.5492    0.2689
   -155.00    0.5622    0.2898
   -154.00    0.5745    0.3113
   -153.00    0.5862    0.3334
   -152.00    0.5972    0.3560
   -151.00    0.6073    0.3792
   -150.00    0.6166    0.4029
   -149.00    0.6250    0.4271
   -148.00    0.6326    0.4517
   -147.00    0.6392    0.4767
   -146.00    0.6450    0.5021
   -145.00    0.6498    0.5279
   -144.00    0.6537    0.5540
   -143.00    0.6567    0.5804
   -142.00    0.6588    0.6070
   -141.00    0.6600    0.6339
   -140.00    0.6603    0.6610
   -139.00    0.6596    0.6882
   -138.00    0.6581    0.7156
   -137.00    0.6557    0.7430
   -136.00    0.6524    0.7706
   -135.00    0.6483    0.7981
   -134.00    0.6433    0.8257
   -133.00    0.6376    0.8532
   -132.00    0.6310    0.8806
   -131.00    0.6236    0.9079
   -130.00    0.6154    0.9351
   -129.00    0.6065    0.9621
   -128.00    0.5968    0.9889
   -127.00    0.5864    1.0155
   -126.00    0.5753    1.0418
   -125.00    0.5636    1.0678
   -124.00    0.5512    1.0935
   -123.00    0.5381    1.1188
   -122.00    0.5245    1.1437
   -121.00    0.5103    1.1682
   -120.00    0.4955    1.1922
   -119.00    0.4801    1.2158
   -118.00    0.4642    1.2388
   -117.00    0.4479    1.2614
   -116.00    0.4311    1.2833
   -115.00    0.4138    1.3046
   -114.00    0.3961    1.3254
   -113.00    0.3780    1.3454
   -112.00    0.3595    1.3649
   -111.00    0.3407    1.3836
   -110.00    0.3216    1.4016
   -109.00    0.3021    1.4189
   -108.00    0.2824    1.4354
   -107.00    0.2624    1.4511
   -106.00    0.2422    1.4661
   -105.00    0.2218    1.4802
   -104.00    0.2008    1.4935
   -103.00    0.1801    1.5060
   -102.00    0.1592    1.5176
   -101.00    0.1382    1.5283
   -100.00    0.1171    1.5381
    -99.00    0.0959    1.5470
    -98.00    0.0746    1.5551
    -97.00    0.0534    1.5622
    -96.00    0.0321    1.5683
    -95.00    0.0109    1.5736
    -94.00   -0.0103    1.5778
    -93.00   -0.0315    1.5812
    -92.00   -0.0525    1.5836
    -91.00   -0.0735    1.5850
    -90.00   -0.0944    1.5855
    -89.00   -0.1151    1.5850
    -88.00   -0.1356    1.5836
    -87.00   -0.1560    1.5812
    -86.00   -0.1762    1.5778
    -85.00   -0.1962    1.5735
    -84.00   -0.2159    1.5683
    -83.00   -0.2354    1.5621
    -82.00   -0.2546    1.5550
    -81.00   -0.2735    1.5470
    -80.00   -0.2921    1.5381
    -79.00   -0.3104    1.5282
    -78.00   -0.3284    1.5175
    -77.00   -0.3460    1.5059
    -76.00   -0.3633    1.4935
    -75.00   -0.3801    1.4802
    -74.00   -0.3966    1.4660
    -73.00   -0.4127    1.4511
    -72.00   -0.4283    1.4353
    -71.00   -0.4435    1.4188
    -70.00   -0.4582    1.4015
    -69.00   -0.4724    1.3835
    -68.00   -0.4862    1.3648
    -67.00   -0.4995    1.3454
    -66.00   -0.5122    1.3253
    -65.00   -0.5245    1.3046
    -64.00   -0.5362    1.2832
    -63.00   -0.5473    1.2613
    -62.00   -0.5579    1.2388
    -61.00   -0.5679    1.2157
    -60.00   -0.5774    1.1922
    -59.00   -0.5862    1.1681
    -58.00   -0.5945    1.1436
    -57.00   -0.6021    1.1187
    -56.00   -0.6092    1.0934
    -55.00   -0.6156    1.0677
    -54.00   -0.6213    1.0417
    -53.00   -0.6264    1.0154
    -52.00   -0.6309    0.9888
    -51.00   -0.6347    0.9620
    -50.00   -0.6379    0.9349
    -49.00   -0.6404    0.9077
    -48.00   -0.6422    0.8804
    -47.00   -0.6434    0.8529
    -46.00   -0.6438    0.8254
    -45.00   -0.6436    0.7979
    -44.00   -0.6427    0.7703
    -43.00   -0.6411    0.7427
    -42.00   -0.6389    0.7153
    -41.00   -0.6359    0.6879
    -40.00   -0.6323    0.6606
    -39.00   -0.6280    0.6335
    -38.00   -0.6230    0.6066
    -37.00   -0.6174    0.5799
    -36.00   -0.6111    0.5534
    -35.00   -0.6042    0.5273
    -34.00   -0.5966    0.5014
    -33.00   -0.5885    0.4760
    -32.00   -0.5798    0.4508
    -31.00   -0.5705    0.4261
    -30.00   -0.5608    0.4018
    -29.00   -0.5506    0.3780
    -28.00   -0.5401    0.3546
    -27.00   -0.5293    0.3318
    -26.00   -0.5184    0.3094
    -25.00   -0.5076    0.2876
    -24.00   -0.4972    0.2664
    -23.00   -0.4875    0.2456
    -22.00   -0.4792    0.2254
    -21.00   -0.4732    0.2057
    -20.00   -0.4707    0.1864
    -19.00   -0.4741    0.1674
    -18.00   -0.4869    0.1486
    -17.00   -0.5148    0.1296
    -16.00   -0.5666    0.1102
    -15.00   -0.6547    0.0897
    -14.00   -0.7887    0.0682
    -13.00   -0.9559    0.0472
    -12.00   -1.0948    0.0304
    -11.00   -1.1304    0.0211
    -10.00   -1.0029    0.0095
     -9.50   -0.9642    0.0086
     -9.00   -0.9160    0.0081
     -8.50   -0.8627    0.0077
     -8.00   -0.8059    0.0074
     -7.50   -0.7454    0.0073
     -7.00   -0.6859    0.0071
     -6.50   -0.6271    0.0069
     -6.00   -0.5658    0.0068
     -5.50   -0.5033    0.0068
     -5.00   -0.4422    0.0067
     -4.50   -0.3809    0.0066
     -4.00   -0.3193    0.0065
     -3.50   -0.2571    0.0065
     -3.00   -0.1940    0.0065
     -2.50   -0.1309    0.0065
     -2.00   -0.0685    0.0064
     -1.50   -0.0064    0.0064
     -1.00    0.0555    0.0064
     -0.50    0.1175    0.0065
      0.00    0.1804    0.0065
      0.50    0.2435    0.0065
      1.00    0.3065    0.0065
      1.50    0.3689    0.0065
      2.00    0.4307    0.0066
      2.50    0.4920    0.0066
      3.00    0.5530    0.0068
      3.50    0.6148    0.0068
      4.00    0.6772    0.0069
      4.50    0.7391    0.0069
      5.00    0.8002    0.0070
      5.50    0.8597    0.0071
      6.00    0.9181    0.0073
      6.50    0.9771    0.0075
      7.00    1.0374    0.0076
      7.50    1.0946    0.0078
      8.00    1.1481    0.0081
      8.50    1.2034    0.0083
      9.00    1.2588    0.0085
      9.50    1.3056    0.0090
     10.00    1.3369    0.0095
     10.50    1.3489    0.0109
     11.00    1.3600    0.0128
     11.50    1.3777    0.0147
     12.00    1.3845    0.0173
     12.50    1.3793    0.0208
     13.00    1.3857    0.0238
     13.50    1.3825    0.0278
     14.00    1.3712    0.0327
     14.50    1.3760    0.0367
     15.00    1.3688    0.0418
     15.50    1.3721    0.0464
     16.00    1.3590    0.0527
     16.50    1.3733    0.0565
     17.00    1.3605    0.0631
     17.50    1.3744    0.0672
     18.00    1.3697    0.0735
     18.50    1.3787    0.0783
     19.00    1.3905    0.0829
     19.50    1.3889    0.0892
     20.00    1.3938    0.0947
     21.00    1.3806    0.1091
     21.50    1.3622    0.1181
     22.00    1.3703    0.1235
     22.50    1.3821    0.1282
     23.00    1.3683    0.1369
     23.50    1.3812    0.1417
     24.00    1.3950    0.1463
     25.00    1.4011    0.1578
     26.00    1.3690    0.2426
     27.00    1.3632    0.2652
     28.00    1.3572    0.2887
     29.00    1.3511    0.3129
     30.00    1.3450    0.3377
     31.00    1.3390    0.3632
     32.00    1.3330    0.3893
     33.00    1.3271    0.4159
     34.00    1.3214    0.4430
     35.00    1.3157    0.4705
     36.00    1.3101    0.4985
     37.00    1.3045    0.5267
     38.00    1.2989    0.5553
     39.00    1.2932    0.5841
     40.00    1.2874    0.6132
     41.00    1.2815    0.6424
     42.00    1.2754    0.6718
     43.00    1.2690    0.7012
     44.00    1.2623    0.7308
     45.00    1.2552    0.7603
     46.00    1.2478    0.7899
     47.00    1.2399    0.8194
     48.00    1.2315    0.8488
     49.00    1.2226    0.8781
     50.00    1.2131    0.9072
     51.00    1.2031    0.9361
     52.00    1.1924    0.9648
     53.00    1.1810    0.9933
     54.00    1.1689    1.0214
     55.00    1.1562    1.0492
     56.00    1.1427    1.0767
     57.00    1.1284    1.1038
     58.00    1.1134    1.1304
     59.00    1.0975    1.1566
     60.00    1.0809    1.1823
     61.00    1.0635    1.2075
     62.00    1.0452    1.2321
     63.00    1.0261    1.2562
     64.00    1.0062    1.2796
     65.00    0.9855    1.3025
     66.00    0.9640    1.3246
     67.00    0.9416    1.3461
     68.00    0.9184    1.3669
     69.00    0.8944    1.3870
     70.00    0.8696    1.4063
     71.00    0.8440    1.4248
     72.00    0.8177    1.4425
     73.00    0.7906    1.4595
     74.00    0.7628    1.4755
     75.00    0.7342    1.4907
     76.00    0.7050    1.5051
     77.00    0.6751    1.5185
     78.00    0.6445    1.5311
     79.00    0.6134    1.5427
     80.00    0.5816    1.5534
     81.00    0.5493    1.5632
     82.00    0.5165    1.5720
     83.00    0.4832    1.5798
     84.00    0.4494    1.5867
     85.00    0.4152    1.5926
     86.00    0.3806    1.5975
     87.00    0.3456    1.6014
     88.00    0.3104    1.6043
     89.00    0.2749    1.6062
     90.00    0.2391    1.6071
     91.00    0.2032    1.6070
     92.00    0.1671    1.6060
     93.00    0.1309    1.6039
     94.00    0.0947    1.6008
     95.00    0.0584    1.5967
     96.00    0.0222    1.5917
     97.00   -0.0139    1.5857
     98.00   -0.0500    1.5787
     99.00   -0.0858    1.5707
    100.00   -0.1214    1.5618
    101.00   -0.1568    1.5520
    102.00   -0.1919    1.5412
    103.00   -0.2266    1.5296
    104.00   -0.2609    1.5170
    105.00   -0.3494    1.5036
    106.00   -0.3816    1.4892
    107.00   -0.4133    1.4741
    108.00   -0.4444    1.4581
    109.00   -0.4749    1.4413
    110.00   -0.5048    1.4238
    111.00   -0.5340    1.4055
    112.00   -0.5625    1.3864
    113.00   -0.5902    1.3666
    114.00   -0.6171    1.3462
    115.00   -0.6432    1.3250
    116.00   -0.6684    1.3033
    117.00   -0.6926    1.2809
    118.00   -0.7159    1.2579
    119.00   -0.7382    1.2344
    120.00   -0.7595    1.2104
    121.00   -0.7797    1.1859
    122.00   -0.7989    1.1609
    123.00   -0.8169    1.1354
    124.00   -0.8338    1.1096
    125.00   -0.8496    1.0834
    126.00   -0.8641    1.0569
    127.00   -0.8775    1.0300
    128.00   -0.8896    1.0029
    129.00   -0.9005    0.9756
    130.00   -0.9101    0.9480
    131.00   -0.9185    0.9203
    132.00   -0.9256    0.8924
    133.00   -0.9314    0.8645
    134.00   -0.9359    0.8364
    135.00   -0.9392    0.8084
    136.00   -0.9411    0.7803
    137.00   -0.9418    0.7523
    138.00   -0.9412    0.7243
    139.00   -0.9393    0.6965
    140.00   -0.9361    0.6687
    141.00   -0.9317    0.6412
    142.00   -0.9260    0.6139
    143.00   -0.9191    0.5868
    144.00   -0.9109    0.5600
    145.00   -0.9016    0.5334
    146.00   -0.8911    0.5073
    147.00   -0.8795    0.4815
    148.00   -0.8668    0.4561
    149.00   -0.8530    0.4311
    150.00   -0.8382    0.4066
    151.00   -0.8225    0.3826
    152.00   -0.8058    0.3591
    153.00   -0.7883    0.3361
    154.00   -0.7700    0.3138
    155.00   -0.7510    0.2920
    156.00   -0.7315    0.2709
    157.00   -0.7117    0.2504
    158.00   -0.6916    0.2306
    159.00   -0.6717    0.2116
    160.00   -0.6522    0.1932
    161.00   -0.6338    0.1756
    162.00   -0.6173    0.1588
    163.00   -0.6039    0.1428
    164.00   -0.5955    0.1275
    165.00   -0.5951    0.1132
    166.00   -0.6070    0.0996
    167.00   -0.6369    0.0869
    168.00   -0.6900    0.0751
    169.00   -0.7637    0.0642
    170.00   -0.8341    0.0542
    171.00   -0.8603    0.0452
    172.00   -0.8219    0.0370
    173.00   -0.7391    0.0298
    174.00   -0.6409    0.0235
    175.00   -0.5408    0.0182
    176.00   -0.4407    0.0138
    177.00   -0.3406    0.0104
    178.00   -0.2405    0.0080
    179.00   -0.1404    0.0065
    180.00   -0.0403    0.0061
    180.00   -0.0403    0.0060
