AeroDyn airfoil file Created with QBlade v0.91b 32-Bit on 03.06.2016 at 15:22:48 Compatible with AeroDyn v13.0.
Polar "T1_Re1.000_M0.00_N9.0 360 M" on Foil "T1_Re1.000_M0.00_N9.0" :: generated by QBlade
1              Number of airfoil tables in this file
0              Table ID parameter
18.00          Stall angle (deg)
0              No longer used, enter zero
0              No longer used, enter zero
0              No longer used, enter zero
0.00           Angle of attack for zero Cn for linear Cn curve (deg)
5.26289        Cn slope for zero lift for linear Cn curve (1/rad)
0.8237         Cn at stall value for positive angle of attack for linear Cn curve
-0.8222        Cn at stall value for negative angle of attack for linear Cn curve
0.00           Angle of attack for minimum CD (deg)
0.0098         Minimum CD value
   -180.00    0.0000    0.0060
   -179.00    0.0734    0.0065
   -178.00    0.1451    0.0079
   -177.00    0.2118    0.0104
   -176.00    0.2682    0.0138
   -175.00    0.3100    0.0181
   -174.00    0.3370    0.0234
   -173.00    0.3529    0.0297
   -172.00    0.3633    0.0369
   -171.00    0.3726    0.0450
   -170.00    0.3831    0.0541
   -169.00    0.3957    0.0641
   -168.00    0.4104    0.0750
   -167.00    0.4270    0.0867
   -166.00    0.4450    0.0994
   -165.00    0.4640    0.1129
   -164.00    0.4836    0.1272
   -163.00    0.5035    0.1424
   -162.00    0.5236    0.1584
   -161.00    0.5436    0.1751
   -160.00    0.5633    0.1927
   -159.00    0.5826    0.2109
   -158.00    0.6015    0.2299
   -157.00    0.6198    0.2496
   -156.00    0.6375    0.2700
   -155.00    0.6544    0.2910
   -154.00    0.6706    0.3126
   -153.00    0.6860    0.3349
   -152.00    0.7005    0.3577
   -151.00    0.7141    0.3810
   -150.00    0.7268    0.4049
   -149.00    0.7386    0.4293
   -148.00    0.7494    0.4541
   -147.00    0.7592    0.4793
   -146.00    0.7680    0.5049
   -145.00    0.7757    0.5309
   -144.00    0.7824    0.5573
   -143.00    0.7881    0.5839
   -142.00    0.7927    0.6108
   -141.00    0.7962    0.6379
   -140.00    0.7987    0.6653
   -139.00    0.8001    0.6928
   -138.00    0.8004    0.7204
   -137.00    0.7996    0.7482
   -136.00    0.7977    0.7760
   -135.00    0.7948    0.8038
   -134.00    0.7908    0.8316
   -133.00    0.7858    0.8595
   -132.00    0.7797    0.8872
   -131.00    0.7725    0.9148
   -130.00    0.7643    0.9423
   -129.00    0.7552    0.9697
   -128.00    0.7450    0.9968
   -127.00    0.7338    1.0237
   -126.00    0.7217    1.0503
   -125.00    0.7086    1.0767
   -124.00    0.6947    1.1027
   -123.00    0.6798    1.1283
   -122.00    0.6640    1.1535
   -121.00    0.6474    1.1783
   -120.00    0.6299    1.2027
   -119.00    0.6116    1.2266
   -118.00    0.5926    1.2499
   -117.00    0.5728    1.2727
   -116.00    0.5523    1.2950
   -115.00    0.5310    1.3166
   -114.00    0.5092    1.3376
   -113.00    0.4867    1.3580
   -112.00    0.4635    1.3777
   -111.00    0.4390    1.3967
   -110.00    0.4149    1.4150
   -109.00    0.3902    1.4325
   -108.00    0.3650    1.4492
   -107.00    0.3394    1.4652
   -106.00    0.3134    1.4804
   -105.00    0.2871    1.4947
   -104.00    0.2604    1.5082
   -103.00    0.2334    1.5209
   -102.00    0.2062    1.5326
   -101.00    0.1787    1.5435
   -100.00    0.1511    1.5535
    -99.00    0.1233    1.5625
    -98.00    0.0953    1.5707
    -97.00    0.0673    1.5779
    -96.00    0.0393    1.5842
    -95.00    0.0112    1.5895
    -94.00   -0.0168    1.5938
    -93.00   -0.0447    1.5972
    -92.00   -0.0726    1.5996
    -91.00   -0.1004    1.6011
    -90.00   -0.1280    1.6016
    -89.00   -0.1554    1.6011
    -88.00   -0.1825    1.5996
    -87.00   -0.2094    1.5972
    -86.00   -0.2360    1.5938
    -85.00   -0.2623    1.5894
    -84.00   -0.2883    1.5841
    -83.00   -0.3139    1.5779
    -82.00   -0.3390    1.5707
    -81.00   -0.3637    1.5625
    -80.00   -0.3880    1.5534
    -79.00   -0.4117    1.5435
    -78.00   -0.4350    1.5326
    -77.00   -0.4577    1.5208
    -76.00   -0.4798    1.5082
    -75.00   -0.5013    1.4947
    -74.00   -0.5223    1.4803
    -73.00   -0.5426    1.4651
    -72.00   -0.5622    1.4492
    -71.00   -0.5811    1.4324
    -70.00   -0.5994    1.4149
    -69.00   -0.6169    1.3966
    -68.00   -0.6338    1.3776
    -67.00   -0.6498    1.3579
    -66.00   -0.6651    1.3375
    -65.00   -0.6797    1.3165
    -64.00   -0.6934    1.2949
    -63.00   -0.7064    1.2726
    -62.00   -0.7185    1.2498
    -61.00   -0.7298    1.2264
    -60.00   -0.7403    1.2025
    -59.00   -0.7499    1.1782
    -58.00   -0.7587    1.1534
    -57.00   -0.7666    1.1281
    -56.00   -0.7737    1.1025
    -55.00   -0.7799    1.0765
    -54.00   -0.7853    1.0501
    -53.00   -0.7898    1.0235
    -52.00   -0.7934    0.9966
    -51.00   -0.7961    0.9694
    -50.00   -0.7980    0.9420
    -49.00   -0.7990    0.9145
    -48.00   -0.7992    0.8869
    -47.00   -0.7985    0.8591
    -46.00   -0.7969    0.8313
    -45.00   -0.7945    0.8034
    -44.00   -0.7912    0.7755
    -43.00   -0.7871    0.7477
    -42.00   -0.7822    0.7199
    -41.00   -0.7765    0.6922
    -40.00   -0.7700    0.6647
    -39.00   -0.7628    0.6373
    -38.00   -0.7547    0.6101
    -37.00   -0.7459    0.5831
    -36.00   -0.7364    0.5564
    -35.00   -0.7262    0.5300
    -34.00   -0.7153    0.5039
    -33.00   -0.7038    0.4781
    -32.00   -0.6917    0.4528
    -31.00   -0.6790    0.4278
    -30.00   -0.6658    0.4033
    -29.00   -0.6523    0.3792
    -28.00   -0.6383    0.3556
    -27.00   -0.6242    0.3324
    -26.00   -0.6100    0.3098
    -25.00   -0.5960    0.2877
    -24.00   -0.5823    0.2662
    -23.00   -0.5695    0.2451
    -22.00   -0.5581    0.2245
    -21.00   -0.5490    0.2044
    -20.00   -0.5434    0.1846
    -19.00   -0.5432    0.1650
    -18.00   -0.5515    0.1455
    -17.00   -0.5726    0.1257
    -16.00   -0.6126    0.1055
    -15.00   -0.6781    0.0846
    -14.00   -0.7705    0.0635
    -13.00   -0.8743    0.0440
    -12.00   -0.9503    0.0293
    -11.00   -0.9617    0.0211
    -10.00   -0.8687    0.0157
     -9.50   -0.8312    0.0148
     -8.50   -0.7514    0.0134
     -8.00   -0.7066    0.0129
     -7.50   -0.6658    0.0124
     -7.00   -0.6220    0.0119
     -6.50   -0.5762    0.0116
     -6.00   -0.5338    0.0112
     -5.50   -0.4850    0.0110
     -5.00   -0.4432    0.0106
     -4.50   -0.3952    0.0104
     -4.00   -0.3536    0.0102
     -3.50   -0.3089    0.0101
     -3.00   -0.2706    0.0100
     -2.50   -0.2298    0.0100
     -2.00   -0.1839    0.0098
     -1.50   -0.1398    0.0098
     -1.00   -0.0922    0.0098
     -0.50   -0.0468    0.0098
      0.00   -0.0000    0.0098
      0.50    0.0468    0.0098
      1.00    0.0923    0.0098
      1.50    0.1398    0.0098
      2.00    0.1840    0.0098
      2.50    0.2299    0.0100
      3.00    0.2708    0.0100
      3.50    0.3091    0.0101
      4.00    0.3538    0.0102
      4.50    0.3955    0.0104
      5.00    0.4436    0.0106
      5.50    0.4854    0.0110
      6.00    0.5344    0.0112
      6.50    0.5768    0.0116
      7.00    0.6228    0.0119
      7.50    0.6666    0.0124
      8.00    0.7077    0.0129
      8.50    0.7525    0.0134
      9.50    0.8327    0.0148
     10.00    0.8703    0.0157
     10.50    0.9029    0.0168
     11.00    0.9403    0.0177
     11.50    0.9683    0.0190
     12.00    0.9955    0.0206
     13.00    1.0818    0.0243
     13.50    1.1313    0.0265
     14.00    1.1817    0.0286
     14.50    1.2093    0.0317
     15.00    1.2031    0.0343
     15.50    1.2149    0.0367
     16.00    1.2248    0.0399
     16.50    1.2257    0.0443
     17.00    1.2328    0.0484
     17.50    1.2480    0.0520
     18.00    1.2530    0.0566
     18.50    1.2450    0.0627
     19.00    1.2369    0.0688
     19.50    1.2495    0.0729
     20.00    1.2493    0.0786
     20.50    1.2392    0.0854
     21.00    1.2188    0.0934
     21.50    1.2216    0.0988
     22.00    1.2206    0.1048
     23.00    1.1938    0.1560
     24.00    1.1721    0.1787
     25.00    1.1499    0.2025
     26.00    1.1281    0.2273
     27.00    1.1073    0.2530
     28.00    1.0878    0.2794
     29.00    1.0699    0.3064
     30.00    1.0535    0.3338
     31.00    1.0387    0.3617
     32.00    1.0255    0.3900
     33.00    1.0137    0.4186
     34.00    1.0031    0.4474
     35.00    0.9937    0.4764
     36.00    0.9853    0.5057
     37.00    0.9778    0.5350
     38.00    0.9709    0.5645
     39.00    0.9646    0.5941
     40.00    0.9587    0.6237
     41.00    0.9530    0.6534
     42.00    0.9476    0.6831
     43.00    0.9423    0.7128
     44.00    0.9369    0.7424
     45.00    0.9315    0.7720
     46.00    0.9259    0.8014
     47.00    0.9201    0.8308
     48.00    0.9139    0.8599
     49.00    0.9075    0.8889
     50.00    0.9006    0.9177
     51.00    0.8932    0.9462
     52.00    0.8854    0.9745
     53.00    0.8771    1.0025
     54.00    0.8682    1.0301
     55.00    0.8588    1.0574
     56.00    0.8488    1.0843
     57.00    0.8381    1.1108
     58.00    0.8268    1.1368
     59.00    0.8149    1.1624
     60.00    0.8023    1.1875
     61.00    0.7891    1.2121
     62.00    0.7752    1.2361
     63.00    0.7606    1.2595
     64.00    0.7454    1.2824
     65.00    0.7295    1.3046
     66.00    0.7129    1.3261
     67.00    0.6957    1.3470
     68.00    0.6778    1.3672
     69.00    0.6593    1.3866
     70.00    0.6401    1.4054
     71.00    0.6203    1.4233
     72.00    0.5999    1.4405
     73.00    0.5789    1.4568
     74.00    0.5573    1.4724
     75.00    0.5351    1.4871
     76.00    0.5123    1.5009
     77.00    0.4891    1.5139
     78.00    0.4653    1.5259
     79.00    0.4410    1.5371
     80.00    0.4163    1.5474
     81.00    0.3911    1.5567
     82.00    0.3655    1.5651
     83.00    0.3395    1.5725
     84.00    0.3131    1.5790
     85.00    0.2864    1.5846
     86.00    0.2593    1.5892
     87.00    0.2320    1.5928
     88.00    0.2044    1.5954
     89.00    0.1765    1.5970
     90.00    0.1485    1.5977
     91.00    0.1203    1.5974
     92.00    0.0920    1.5961
     93.00    0.0635    1.5938
     94.00    0.0350    1.5906
     95.00    0.0065    1.5864
     96.00   -0.0221    1.5812
     97.00   -0.0506    1.5751
     98.00   -0.0791    1.5680
     99.00   -0.1074    1.5600
    100.00   -0.1357    1.5510
    101.00   -0.1637    1.5412
    102.00   -0.1916    1.5304
    103.00   -0.2192    1.5187
    104.00   -0.2466    1.5062
    105.00   -0.2736    1.4928
    106.00   -0.3003    1.4785
    107.00   -0.3267    1.4635
    108.00   -0.3526    1.4476
    109.00   -0.3781    1.4309
    110.00   -0.4030    1.4134
    111.00   -0.4275    1.3953
    112.00   -0.4636    1.3763
    113.00   -0.4867    1.3567
    114.00   -0.5092    1.3364
    115.00   -0.5311    1.3155
    116.00   -0.5523    1.2939
    117.00   -0.5728    1.2717
    118.00   -0.5926    1.2489
    119.00   -0.6116    1.2256
    120.00   -0.6299    1.2018
    121.00   -0.6474    1.1775
    122.00   -0.6640    1.1527
    123.00   -0.6798    1.1275
    124.00   -0.6947    1.1020
    125.00   -0.7087    1.0760
    126.00   -0.7217    1.0497
    127.00   -0.7339    1.0231
    128.00   -0.7450    0.9963
    129.00   -0.7552    0.9692
    130.00   -0.7644    0.9419
    131.00   -0.7726    0.9144
    132.00   -0.7797    0.8868
    133.00   -0.7858    0.8591
    134.00   -0.7909    0.8313
    135.00   -0.7948    0.8035
    136.00   -0.7978    0.7756
    137.00   -0.7996    0.7478
    138.00   -0.8004    0.7201
    139.00   -0.8001    0.6925
    140.00   -0.7987    0.6650
    141.00   -0.7963    0.6377
    142.00   -0.7928    0.6106
    143.00   -0.7882    0.5837
    144.00   -0.7825    0.5571
    145.00   -0.7758    0.5308
    146.00   -0.7681    0.5048
    147.00   -0.7593    0.4792
    148.00   -0.7495    0.4539
    149.00   -0.7387    0.4291
    150.00   -0.7269    0.4048
    151.00   -0.7142    0.3809
    152.00   -0.7006    0.3576
    153.00   -0.6861    0.3348
    154.00   -0.6707    0.3126
    155.00   -0.6546    0.2909
    156.00   -0.6376    0.2699
    157.00   -0.6200    0.2496
    158.00   -0.6017    0.2299
    159.00   -0.5829    0.2109
    160.00   -0.5635    0.1926
    161.00   -0.5438    0.1751
    162.00   -0.5239    0.1584
    163.00   -0.5038    0.1424
    164.00   -0.4839    0.1272
    165.00   -0.4643    0.1129
    166.00   -0.4453    0.0994
    167.00   -0.4273    0.0867
    168.00   -0.4107    0.0750
    169.00   -0.3958    0.0641
    170.00   -0.3831    0.0541
    171.00   -0.3724    0.0451
    172.00   -0.3628    0.0369
    173.00   -0.3521    0.0297
    174.00   -0.3360    0.0234
    175.00   -0.3090    0.0181
    176.00   -0.2674    0.0138
    177.00   -0.2114    0.0104
    178.00   -0.1450    0.0080
    179.00   -0.0733    0.0065
    180.00    0.0000    0.0060
    180.00    0.0000    0.0060
