AeroDyn airfoil file Created with QBlade v0.91b 32-Bit on 03.06.2016 at 09:28:29 Compatible with AeroDyn v13.0.
Polar "T1_Re0.600_M0.00_N9.0 360 M" on Foil "T1_Re0.600_M0.00_N9.0" :: generated by QBlade
1              Number of airfoil tables in this file
0              Table ID parameter
16.00          Stall angle (deg)
0              No longer used, enter zero
0              No longer used, enter zero
0              No longer used, enter zero
-0.00          Angle of attack for zero Cn for linear Cn curve (deg)
6.25478        Cn slope for zero lift for linear Cn curve (1/rad)
1.0123         Cn at stall value for positive angle of attack for linear Cn curve
-1.0115        Cn at stall value for negative angle of attack for linear Cn curve
0.00           Angle of attack for minimum CD (deg)
0.0135         Minimum CD value
   -180.00   -0.0000    0.0060
   -179.00    0.0519    0.0065
   -178.00    0.0957    0.0080
   -177.00    0.1336    0.0106
   -176.00    0.1674    0.0141
   -175.00    0.1986    0.0187
   -174.00    0.2282    0.0242
   -173.00    0.2566    0.0308
   -172.00    0.2843    0.0383
   -171.00    0.3116    0.0468
   -170.00    0.3384    0.0563
   -169.00    0.3650    0.0668
   -168.00    0.3912    0.0781
   -167.00    0.4171    0.0904
   -166.00    0.4425    0.1037
   -165.00    0.4676    0.1178
   -164.00    0.4921    0.1328
   -163.00    0.5162    0.1486
   -162.00    0.5396    0.1653
   -161.00    0.5625    0.1829
   -160.00    0.5846    0.2012
   -159.00    0.6061    0.2203
   -158.00    0.6268    0.2401
   -157.00    0.6467    0.2607
   -156.00    0.6657    0.2820
   -155.00    0.6839    0.3040
   -154.00    0.7012    0.3266
   -153.00    0.7176    0.3499
   -152.00    0.7331    0.3737
   -151.00    0.7475    0.3982
   -150.00    0.7609    0.4231
   -149.00    0.7734    0.4486
   -148.00    0.7847    0.4745
   -147.00    0.7951    0.5009
   -146.00    0.8043    0.5277
   -145.00    0.8124    0.5549
   -144.00    0.8195    0.5824
   -143.00    0.8254    0.6103
   -142.00    0.8302    0.6384
   -141.00    0.8339    0.6668
   -140.00    0.8365    0.6954
   -139.00    0.8379    0.7241
   -138.00    0.8382    0.7530
   -137.00    0.8374    0.7820
   -136.00    0.8354    0.8111
   -135.00    0.8323    0.8402
   -134.00    0.8282    0.8693
   -133.00    0.8228    0.8984
   -132.00    0.8164    0.9274
   -131.00    0.8090    0.9563
   -130.00    0.8004    0.9851
   -129.00    0.7908    1.0136
   -128.00    0.7801    1.0420
   -127.00    0.7684    1.0701
   -126.00    0.7557    1.0980
   -125.00    0.7420    1.1255
   -124.00    0.7274    1.1527
   -123.00    0.7118    1.1795
   -122.00    0.6953    1.2058
   -121.00    0.6778    1.2318
   -120.00    0.6552    1.2572
   -119.00    0.6360    1.2822
   -118.00    0.6161    1.3066
   -117.00    0.5954    1.3304
   -116.00    0.5739    1.3537
   -115.00    0.5516    1.3763
   -114.00    0.5287    1.3983
   -113.00    0.5052    1.4195
   -112.00    0.4809    1.4401
   -111.00    0.4561    1.4600
   -110.00    0.4308    1.4791
   -109.00    0.4049    1.4974
   -108.00    0.3785    1.5149
   -107.00    0.3516    1.5315
   -106.00    0.3244    1.5474
   -105.00    0.2967    1.5624
   -104.00    0.2687    1.5765
   -103.00    0.2404    1.5897
   -102.00    0.2118    1.6019
   -101.00    0.1830    1.6133
   -100.00    0.1539    1.6237
    -99.00    0.1248    1.6331
    -98.00    0.0954    1.6416
    -97.00    0.0660    1.6491
    -96.00    0.0366    1.6557
    -95.00    0.0071    1.6612
    -94.00   -0.0223    1.6657
    -93.00   -0.0517    1.6692
    -92.00   -0.0810    1.6717
    -91.00   -0.1102    1.6732
    -90.00   -0.1392    1.6737
    -89.00   -0.1680    1.6731
    -88.00   -0.1966    1.6715
    -87.00   -0.2250    1.6690
    -86.00   -0.2530    1.6654
    -85.00   -0.2807    1.6607
    -84.00   -0.3080    1.6551
    -83.00   -0.3350    1.6485
    -82.00   -0.3615    1.6409
    -81.00   -0.3876    1.6323
    -80.00   -0.4132    1.6228
    -79.00   -0.4384    1.6123
    -78.00   -0.4629    1.6008
    -77.00   -0.4870    1.5885
    -76.00   -0.5104    1.5752
    -75.00   -0.5333    1.5610
    -74.00   -0.5555    1.5459
    -73.00   -0.5771    1.5299
    -72.00   -0.5980    1.5131
    -71.00   -0.6182    1.4955
    -70.00   -0.6378    1.4771
    -69.00   -0.6566    1.4578
    -68.00   -0.6747    1.4379
    -67.00   -0.6920    1.4172
    -66.00   -0.7085    1.3957
    -65.00   -0.7243    1.3736
    -64.00   -0.7393    1.3508
    -63.00   -0.7535    1.3274
    -62.00   -0.7668    1.3034
    -61.00   -0.7794    1.2788
    -60.00   -0.7911    1.2537
    -59.00   -0.8021    1.2280
    -58.00   -0.8122    1.2019
    -57.00   -0.8214    1.1753
    -56.00   -0.8299    1.1482
    -55.00   -0.8375    1.1208
    -54.00   -0.8443    1.0930
    -53.00   -0.8502    1.0649
    -52.00   -0.8554    1.0365
    -51.00   -0.8598    1.0078
    -50.00   -0.8634    0.9789
    -49.00   -0.8662    0.9498
    -48.00   -0.8682    0.9205
    -47.00   -0.8696    0.8911
    -46.00   -0.8702    0.8616
    -45.00   -0.8701    0.8320
    -44.00   -0.8694    0.8024
    -43.00   -0.8681    0.7728
    -42.00   -0.8663    0.7432
    -41.00   -0.8639    0.7137
    -40.00   -0.8610    0.6843
    -39.00   -0.8577    0.6550
    -38.00   -0.8541    0.6259
    -37.00   -0.8503    0.5969
    -36.00   -0.8463    0.5681
    -35.00   -0.8422    0.5396
    -34.00   -0.8383    0.5113
    -33.00   -0.8345    0.4834
    -32.00   -0.8312    0.4557
    -31.00   -0.8284    0.4283
    -30.00   -0.8264    0.4013
    -29.00   -0.8255    0.3746
    -28.00   -0.8259    0.3484
    -27.00   -0.8281    0.3225
    -26.00   -0.8323    0.2970
    -25.00   -0.8390    0.2720
    -24.00   -0.8486    0.2474
    -23.00   -0.8617    0.2233
    -22.00   -0.8785    0.1998
    -21.00   -0.8995    0.1768
    -20.00   -0.9248    0.1546
    -19.00   -0.9541    0.1332
    -18.00   -0.9865    0.1128
    -17.00   -1.0206    0.0938
    -16.00   -1.0536    0.0763
    -15.00   -1.0820    0.0608
    -14.00   -1.1011    0.0475
    -13.00   -1.1064    0.0367
    -12.00   -1.0937    0.0284
    -11.00   -1.0609    0.0225
    -10.00   -1.0240    0.0175
     -9.50   -0.9855    0.0170
     -9.00   -0.9410    0.0166
     -8.50   -0.8945    0.0162
     -8.00   -0.8466    0.0158
     -7.50   -0.7975    0.0155
     -7.00   -0.7475    0.0152
     -6.50   -0.6966    0.0150
     -6.00   -0.6451    0.0147
     -5.50   -0.5930    0.0145
     -5.00   -0.5404    0.0143
     -4.50   -0.4874    0.0142
     -4.00   -0.4341    0.0140
     -3.50   -0.3805    0.0139
     -3.00   -0.3266    0.0138
     -2.50   -0.2724    0.0137
     -2.00   -0.2182    0.0136
     -1.50   -0.1638    0.0136
     -1.00   -0.1092    0.0135
     -0.50   -0.0546    0.0135
      0.00    0.0000    0.0135
      0.50    0.0546    0.0135
      1.00    0.1092    0.0135
      1.50    0.1638    0.0136
      2.00    0.2182    0.0136
      2.50    0.2725    0.0137
      3.00    0.3266    0.0138
      3.50    0.3805    0.0139
      4.00    0.4342    0.0140
      4.50    0.4875    0.0142
      5.00    0.5405    0.0143
      5.50    0.5931    0.0145
      6.00    0.6452    0.0147
      6.50    0.6968    0.0150
      7.00    0.7476    0.0152
      7.50    0.7977    0.0155
      8.00    0.8469    0.0158
      8.50    0.8949    0.0162
      9.00    0.9415    0.0166
      9.50    0.9861    0.0170
     10.00    1.0248    0.0175
     10.50    1.0614    0.0181
     11.00    1.0971    0.0191
     11.50    1.1276    0.0203
     12.00    1.1618    0.0214
     12.50    1.1854    0.0231
     13.00    1.2133    0.0247
     13.50    1.2400    0.0265
     14.00    1.2574    0.0291
     14.50    1.2663    0.0326
     15.00    1.2890    0.0353
     15.50    1.3032    0.0388
     16.00    1.3097    0.0433
     16.50    1.3047    0.0494
     17.00    1.2852    0.0572
     17.50    1.2884    0.0630
     18.00    1.2865    0.0695
     18.50    1.2797    0.0767
     19.00    1.2698    0.0846
     19.50    1.2567    0.0931
     20.00    1.2403    0.1022
     21.00    1.2003    0.1422
     22.00    1.1647    0.1654
     23.00    1.1307    0.1897
     24.00    1.0992    0.2148
     25.00    1.0710    0.2407
     26.00    1.0461    0.2672
     27.00    1.0245    0.2943
     28.00    1.0061    0.3217
     29.00    0.9906    0.3495
     30.00    0.9777    0.3776
     31.00    0.9670    0.4061
     32.00    0.9583    0.4348
     33.00    0.9513    0.4638
     34.00    0.9456    0.4930
     35.00    0.9411    0.5223
     36.00    0.9374    0.5519
     37.00    0.9344    0.5817
     38.00    0.9320    0.6115
     39.00    0.9298    0.6415
     40.00    0.9279    0.6716
     41.00    0.9261    0.7018
     42.00    0.9242    0.7320
     43.00    0.9221    0.7622
     44.00    0.9199    0.7924
     45.00    0.9173    0.8226
     46.00    0.9144    0.8527
     47.00    0.9110    0.8827
     48.00    0.9072    0.9125
     49.00    0.9028    0.9422
     50.00    0.8978    0.9717
     51.00    0.8923    1.0010
     52.00    0.8861    1.0300
     53.00    0.8792    1.0588
     54.00    0.8717    1.0872
     55.00    0.8635    1.1153
     56.00    0.8545    1.1430
     57.00    0.8448    1.1703
     58.00    0.8344    1.1971
     59.00    0.8232    1.2235
     60.00    0.8113    1.2494
     61.00    0.7986    1.2747
     62.00    0.7851    1.2995
     63.00    0.7709    1.3237
     64.00    0.7560    1.3473
     65.00    0.7402    1.3702
     66.00    0.7238    1.3925
     67.00    0.7066    1.4141
     68.00    0.6886    1.4349
     69.00    0.6700    1.4551
     70.00    0.6506    1.4744
     71.00    0.6306    1.4930
     72.00    0.6099    1.5107
     73.00    0.5885    1.5276
     74.00    0.5665    1.5437
     75.00    0.5438    1.5588
     76.00    0.5206    1.5731
     77.00    0.4968    1.5865
     78.00    0.4724    1.5990
     79.00    0.4475    1.6105
     80.00    0.4220    1.6211
     81.00    0.3961    1.6307
     82.00    0.3697    1.6394
     83.00    0.3429    1.6471
     84.00    0.3157    1.6537
     85.00    0.2881    1.6594
     86.00    0.2601    1.6641
     87.00    0.2319    1.6677
     88.00    0.2033    1.6704
     89.00    0.1745    1.6720
     90.00    0.1455    1.6726
     91.00    0.1163    1.6722
     92.00    0.0869    1.6707
     93.00    0.0574    1.6683
     94.00    0.0279    1.6648
     95.00   -0.0017    1.6603
     96.00   -0.0314    1.6549
     97.00   -0.0610    1.6484
     98.00   -0.0905    1.6409
     99.00   -0.1200    1.6324
    100.00   -0.1493    1.6230
    101.00   -0.1785    1.6127
    102.00   -0.2074    1.6013
    103.00   -0.2361    1.5891
    104.00   -0.2645    1.5759
    105.00   -0.2927    1.5618
    106.00   -0.3204    1.5469
    107.00   -0.3478    1.5311
    108.00   -0.3748    1.5144
    109.00   -0.4012    1.4969
    110.00   -0.4272    1.4786
    111.00   -0.4527    1.4596
    112.00   -0.4776    1.4398
    113.00   -0.5019    1.4192
    114.00   -0.5256    1.3979
    115.00   -0.5486    1.3760
    116.00   -0.5709    1.3534
    117.00   -0.5924    1.3302
    118.00   -0.6132    1.3063
    119.00   -0.6332    1.2819
    120.00   -0.6524    1.2570
    121.00   -0.6779    1.2316
    122.00   -0.6953    1.2056
    123.00   -0.7118    1.1793
    124.00   -0.7274    1.1525
    125.00   -0.7421    1.1253
    126.00   -0.7558    1.0978
    127.00   -0.7685    1.0700
    128.00   -0.7802    1.0419
    129.00   -0.7908    1.0135
    130.00   -0.8005    0.9849
    131.00   -0.8090    0.9562
    132.00   -0.8165    0.9273
    133.00   -0.8229    0.8983
    134.00   -0.8282    0.8692
    135.00   -0.8324    0.8401
    136.00   -0.8355    0.8110
    137.00   -0.8375    0.7819
    138.00   -0.8383    0.7529
    139.00   -0.8380    0.7241
    140.00   -0.8366    0.6953
    141.00   -0.8340    0.6667
    142.00   -0.8303    0.6384
    143.00   -0.8255    0.6102
    144.00   -0.8196    0.5824
    145.00   -0.8125    0.5549
    146.00   -0.8044    0.5277
    147.00   -0.7952    0.5009
    148.00   -0.7848    0.4745
    149.00   -0.7735    0.4486
    150.00   -0.7611    0.4231
    151.00   -0.7476    0.3981
    152.00   -0.7332    0.3737
    153.00   -0.7177    0.3499
    154.00   -0.7014    0.3266
    155.00   -0.6841    0.3040
    156.00   -0.6659    0.2820
    157.00   -0.6468    0.2607
    158.00   -0.6269    0.2401
    159.00   -0.6062    0.2203
    160.00   -0.5848    0.2012
    161.00   -0.5626    0.1828
    162.00   -0.5398    0.1653
    163.00   -0.5163    0.1486
    164.00   -0.4923    0.1328
    165.00   -0.4677    0.1178
    166.00   -0.4426    0.1037
    167.00   -0.4171    0.0904
    168.00   -0.3913    0.0781
    169.00   -0.3650    0.0667
    170.00   -0.3384    0.0563
    171.00   -0.3115    0.0468
    172.00   -0.2842    0.0383
    173.00   -0.2564    0.0308
    174.00   -0.2279    0.0242
    175.00   -0.1983    0.0187
    176.00   -0.1670    0.0141
    177.00   -0.1331    0.0106
    178.00   -0.0953    0.0080
    179.00   -0.0516    0.0065
    180.00   -0.0000    0.0060
    180.00   -0.0000    0.0060
