AeroDyn airfoil file Created with QBlade v0.91b 32-Bit on 03.06.2016 at 09:28:29 Compatible with AeroDyn v13.0.
Polar "T1_Re3.200_M0.00_N9.0 360 M" on Foil "T1_Re3.200_M0.00_N9.0" :: generated by QBlade
1              Number of airfoil tables in this file
0              Table ID parameter
19.50          Stall angle (deg)
0              No longer used, enter zero
0              No longer used, enter zero
0              No longer used, enter zero
0.00           Angle of attack for zero Cn for linear Cn curve (deg)
6.55804        Cn slope for zero lift for linear Cn curve (1/rad)
1.1777         Cn at stall value for positive angle of attack for linear Cn curve
-1.0882        Cn at stall value for negative angle of attack for linear Cn curve
0.00           Angle of attack for minimum CD (deg)
0.0096         Minimum CD value
   -180.00    0.0000    0.0060
   -179.00    0.0915    0.0065
   -178.00    0.1831    0.0080
   -177.00    0.2746    0.0106
   -176.00    0.3662    0.0141
   -175.00    0.4577    0.0187
   -174.00    0.5492    0.0242
   -173.00    0.6403    0.0308
   -172.00    0.7229    0.0383
   -171.00    0.7739    0.0468
   -170.00    0.7684    0.0563
   -169.00    0.7133    0.0668
   -168.00    0.6453    0.0781
   -167.00    0.5924    0.0904
   -166.00    0.5612    0.1037
   -165.00    0.5478    0.1178
   -164.00    0.5467    0.1328
   -163.00    0.5535    0.1486
   -162.00    0.5652    0.1653
   -161.00    0.5799    0.1829
   -160.00    0.5964    0.2012
   -159.00    0.6138    0.2203
   -158.00    0.6316    0.2401
   -157.00    0.6494    0.2607
   -156.00    0.6669    0.2820
   -155.00    0.6839    0.3040
   -154.00    0.7004    0.3266
   -153.00    0.7162    0.3499
   -152.00    0.7312    0.3737
   -151.00    0.7453    0.3982
   -150.00    0.7585    0.4231
   -149.00    0.7708    0.4486
   -148.00    0.7821    0.4745
   -147.00    0.7923    0.5009
   -146.00    0.8015    0.5277
   -145.00    0.8097    0.5549
   -144.00    0.8167    0.5825
   -143.00    0.8227    0.6103
   -142.00    0.8275    0.6384
   -141.00    0.8313    0.6668
   -140.00    0.8339    0.6954
   -139.00    0.8354    0.7241
   -138.00    0.8357    0.7530
   -137.00    0.8350    0.7820
   -136.00    0.8331    0.8111
   -135.00    0.8301    0.8402
   -134.00    0.8259    0.8693
   -133.00    0.8207    0.8984
   -132.00    0.8143    0.9274
   -131.00    0.8069    0.9563
   -130.00    0.7984    0.9851
   -129.00    0.7888    1.0137
   -128.00    0.7782    1.0420
   -127.00    0.7666    1.0702
   -126.00    0.7539    1.0980
   -125.00    0.7403    1.1255
   -124.00    0.7257    1.1527
   -123.00    0.7101    1.1795
   -122.00    0.6937    1.2059
   -121.00    0.6763    1.2318
   -120.00    0.6581    1.2573
   -119.00    0.6390    1.2822
   -118.00    0.6191    1.3066
   -117.00    0.5984    1.3305
   -116.00    0.5770    1.3537
   -115.00    0.5548    1.3764
   -114.00    0.5319    1.3983
   -113.00    0.5084    1.4196
   -112.00    0.4843    1.4402
   -111.00    0.4595    1.4600
   -110.00    0.4342    1.4791
   -109.00    0.4084    1.4974
   -108.00    0.3821    1.5149
   -107.00    0.3553    1.5316
   -106.00    0.3281    1.5475
   -105.00    0.3006    1.5625
   -104.00    0.2726    1.5766
   -103.00    0.2410    1.5898
   -102.00    0.2124    1.6020
   -101.00    0.1836    1.6134
   -100.00    0.1546    1.6238
    -99.00    0.1254    1.6333
    -98.00    0.0961    1.6418
    -97.00    0.0667    1.6493
    -96.00    0.0373    1.6558
    -95.00    0.0078    1.6613
    -94.00   -0.0216    1.6659
    -93.00   -0.0510    1.6694
    -92.00   -0.0802    1.6719
    -91.00   -0.1094    1.6734
    -90.00   -0.1384    1.6738
    -89.00   -0.1672    1.6733
    -88.00   -0.1957    1.6717
    -87.00   -0.2240    1.6692
    -86.00   -0.2520    1.6656
    -85.00   -0.2797    1.6610
    -84.00   -0.3070    1.6554
    -83.00   -0.3340    1.6488
    -82.00   -0.3605    1.6412
    -81.00   -0.3865    1.6326
    -80.00   -0.4121    1.6231
    -79.00   -0.4372    1.6126
    -78.00   -0.4617    1.6011
    -77.00   -0.4857    1.5888
    -76.00   -0.5092    1.5755
    -75.00   -0.5320    1.5613
    -74.00   -0.5541    1.5462
    -73.00   -0.5757    1.5303
    -72.00   -0.5965    1.5135
    -71.00   -0.6167    1.4959
    -70.00   -0.6362    1.4775
    -69.00   -0.6549    1.4583
    -68.00   -0.6730    1.4383
    -67.00   -0.6902    1.4176
    -66.00   -0.7067    1.3962
    -65.00   -0.7224    1.3741
    -64.00   -0.7373    1.3514
    -63.00   -0.7514    1.3280
    -62.00   -0.7647    1.3040
    -61.00   -0.7772    1.2795
    -60.00   -0.7888    1.2543
    -59.00   -0.7997    1.2287
    -58.00   -0.8097    1.2026
    -57.00   -0.8188    1.1760
    -56.00   -0.8271    1.1490
    -55.00   -0.8346    1.1216
    -54.00   -0.8413    1.0939
    -53.00   -0.8471    1.0658
    -52.00   -0.8521    1.0374
    -51.00   -0.8564    1.0088
    -50.00   -0.8598    0.9799
    -49.00   -0.8624    0.9509
    -48.00   -0.8643    0.9217
    -47.00   -0.8654    0.8923
    -46.00   -0.8659    0.8629
    -45.00   -0.8656    0.8334
    -44.00   -0.8647    0.8038
    -43.00   -0.8631    0.7743
    -42.00   -0.8609    0.7448
    -41.00   -0.8583    0.7153
    -40.00   -0.8551    0.6860
    -39.00   -0.8515    0.6568
    -38.00   -0.8476    0.6277
    -37.00   -0.8434    0.5988
    -36.00   -0.8390    0.5702
    -35.00   -0.8346    0.5418
    -34.00   -0.8302    0.5136
    -33.00   -0.8260    0.4857
    -32.00   -0.8223    0.4581
    -31.00   -0.8191    0.4309
    -30.00   -0.8168    0.4040
    -29.00   -0.8156    0.3774
    -28.00   -0.8158    0.3513
    -27.00   -0.8179    0.3255
    -26.00   -0.8222    0.3001
    -25.00   -0.8293    0.2751
    -24.00   -0.8397    0.2506
    -23.00   -0.8540    0.2264
    -22.00   -0.8728    0.2028
    -21.00   -0.8967    0.1797
    -20.00   -0.9260    0.1572
    -19.00   -0.9606    0.1355
    -18.00   -0.9999    0.1147
    -17.00   -1.0422    0.0952
    -16.00   -1.0847    0.0771
    -15.00   -1.1228    0.0611
    -14.00   -1.1511    0.0474
    -13.00   -1.1635    0.0362
    -12.00   -1.1549    0.0278
    -11.00   -1.1226    0.0218
    -10.00   -1.1028    0.0124
     -9.50   -1.0529    0.0120
     -9.00   -1.0039    0.0116
     -8.50   -0.9525    0.0113
     -8.00   -0.9017    0.0109
     -7.50   -0.8472    0.0107
     -7.00   -0.7922    0.0106
     -6.50   -0.7369    0.0104
     -6.00   -0.6813    0.0103
     -5.50   -0.6254    0.0102
     -5.00   -0.5693    0.0101
     -4.50   -0.5130    0.0100
     -4.00   -0.4564    0.0099
     -3.50   -0.3997    0.0099
     -3.00   -0.3429    0.0098
     -2.50   -0.2859    0.0098
     -2.00   -0.2288    0.0097
     -1.50   -0.1717    0.0097
     -1.00   -0.1145    0.0097
     -0.50   -0.0573    0.0096
      0.00   -0.0000    0.0096
      0.50    0.0573    0.0096
      1.00    0.1145    0.0097
      1.50    0.1717    0.0097
      2.00    0.2289    0.0097
      2.50    0.2859    0.0098
      3.00    0.3429    0.0098
      3.50    0.3997    0.0099
      4.00    0.4564    0.0099
      4.50    0.5130    0.0100
      5.00    0.5694    0.0101
      5.50    0.6255    0.0102
      6.00    0.6814    0.0103
      6.50    0.7370    0.0104
      7.00    0.7924    0.0106
      7.50    0.8473    0.0107
      8.00    0.9019    0.0109
      8.50    0.9527    0.0113
      9.00    1.0041    0.0116
      9.50    1.0532    0.0120
     10.00    1.1032    0.0124
     10.50    1.1495    0.0129
     11.00    1.1972    0.0133
     11.50    1.2407    0.0138
     12.00    1.2753    0.0143
     12.50    1.3161    0.0148
     13.00    1.3559    0.0155
     13.50    1.3908    0.0164
     14.00    1.4244    0.0174
     14.50    1.4604    0.0182
     15.00    1.4947    0.0193
     15.50    1.5248    0.0205
     16.00    1.5505    0.0222
     16.50    1.5712    0.0243
     17.00    1.5887    0.0269
     17.50    1.6105    0.0293
     18.00    1.6300    0.0321
     18.50    1.6460    0.0352
     19.00    1.6579    0.0390
     19.50    1.6620    0.0438
     20.00    1.6602    0.0493
     21.00    1.5946    0.1042
     22.00    1.5373    0.1277
     23.00    1.4756    0.1533
     24.00    1.4132    0.1804
     25.00    1.3531    0.2087
     26.00    1.2970    0.2378
     27.00    1.2462    0.2675
     28.00    1.2009    0.2976
     29.00    1.1612    0.3279
     30.00    1.1269    0.3583
     31.00    1.0974    0.3889
     32.00    1.0722    0.4195
     33.00    1.0508    0.4502
     34.00    1.0327    0.4809
     35.00    1.0174    0.5117
     36.00    1.0044    0.5424
     37.00    0.9934    0.5732
     38.00    0.9839    0.6041
     39.00    0.9757    0.6349
     40.00    0.9685    0.6657
     41.00    0.9620    0.6966
     42.00    0.9561    0.7273
     43.00    0.9505    0.7581
     44.00    0.9452    0.7887
     45.00    0.9399    0.8193
     46.00    0.9346    0.8497
     47.00    0.9291    0.8800
     48.00    0.9234    0.9102
     49.00    0.9174    0.9401
     50.00    0.9110    0.9699
     51.00    0.9041    0.9994
     52.00    0.8968    1.0286
     53.00    0.8889    1.0575
     54.00    0.8804    1.0861
     55.00    0.8714    1.1143
     56.00    0.8617    1.1421
     57.00    0.8513    1.1695
     58.00    0.8403    1.1964
     59.00    0.8286    1.2229
     60.00    0.8161    1.2488
     61.00    0.8030    1.2742
     62.00    0.7891    1.2991
     63.00    0.7746    1.3233
     64.00    0.7593    1.3470
     65.00    0.7433    1.3700
     66.00    0.7265    1.3923
     67.00    0.7091    1.4139
     68.00    0.6909    1.4348
     69.00    0.6721    1.4549
     70.00    0.6525    1.4743
     71.00    0.6323    1.4929
     72.00    0.6114    1.5106
     73.00    0.5899    1.5275
     74.00    0.5678    1.5436
     75.00    0.5450    1.5588
     76.00    0.5217    1.5731
     77.00    0.4977    1.5865
     78.00    0.4732    1.5990
     79.00    0.4482    1.6106
     80.00    0.4227    1.6211
     81.00    0.3967    1.6308
     82.00    0.3703    1.6394
     83.00    0.3434    1.6471
     84.00    0.3161    1.6538
     85.00    0.2885    1.6595
     86.00    0.2605    1.6641
     87.00    0.2322    1.6678
     88.00    0.2036    1.6704
     89.00    0.1747    1.6721
     90.00    0.1457    1.6727
     91.00    0.1164    1.6722
     92.00    0.0870    1.6708
     93.00    0.0575    1.6684
     94.00    0.0279    1.6649
     95.00   -0.0017    1.6604
     96.00   -0.0314    1.6549
     97.00   -0.0610    1.6484
     98.00   -0.0905    1.6410
     99.00   -0.1200    1.6325
    100.00   -0.1494    1.6231
    101.00   -0.1785    1.6127
    102.00   -0.2075    1.6014
    103.00   -0.2362    1.5891
    104.00   -0.2647    1.5760
    105.00   -0.3006    1.5619
    106.00   -0.3281    1.5469
    107.00   -0.3553    1.5311
    108.00   -0.3821    1.5145
    109.00   -0.4084    1.4970
    110.00   -0.4342    1.4787
    111.00   -0.4595    1.4596
    112.00   -0.4843    1.4398
    113.00   -0.5084    1.4192
    114.00   -0.5319    1.3980
    115.00   -0.5548    1.3760
    116.00   -0.5770    1.3534
    117.00   -0.5984    1.3302
    118.00   -0.6191    1.3064
    119.00   -0.6390    1.2820
    120.00   -0.6581    1.2570
    121.00   -0.6763    1.2316
    122.00   -0.6937    1.2057
    123.00   -0.7102    1.1793
    124.00   -0.7257    1.1525
    125.00   -0.7403    1.1253
    126.00   -0.7539    1.0978
    127.00   -0.7666    1.0700
    128.00   -0.7782    1.0419
    129.00   -0.7888    1.0135
    130.00   -0.7984    0.9849
    131.00   -0.8069    0.9562
    132.00   -0.8143    0.9273
    133.00   -0.8207    0.8983
    134.00   -0.8259    0.8692
    135.00   -0.8301    0.8401
    136.00   -0.8331    0.8110
    137.00   -0.8350    0.7820
    138.00   -0.8358    0.7530
    139.00   -0.8354    0.7241
    140.00   -0.8339    0.6953
    141.00   -0.8313    0.6667
    142.00   -0.8276    0.6384
    143.00   -0.8227    0.6102
    144.00   -0.8168    0.5824
    145.00   -0.8097    0.5549
    146.00   -0.8016    0.5277
    147.00   -0.7924    0.5009
    148.00   -0.7821    0.4745
    149.00   -0.7708    0.4486
    150.00   -0.7586    0.4231
    151.00   -0.7454    0.3981
    152.00   -0.7312    0.3737
    153.00   -0.7163    0.3499
    154.00   -0.7005    0.3266
    155.00   -0.6841    0.3040
    156.00   -0.6670    0.2820
    157.00   -0.6495    0.2607
    158.00   -0.6318    0.2401
    159.00   -0.6140    0.2203
    160.00   -0.5967    0.2012
    161.00   -0.5803    0.1828
    162.00   -0.5656    0.1653
    163.00   -0.5540    0.1486
    164.00   -0.5473    0.1328
    165.00   -0.5486    0.1178
    166.00   -0.5621    0.1037
    167.00   -0.5934    0.0904
    168.00   -0.6462    0.0781
    169.00   -0.7138    0.0667
    170.00   -0.7684    0.0563
    171.00   -0.7736    0.0468
    172.00   -0.7227    0.0383
    173.00   -0.6402    0.0308
    174.00   -0.5492    0.0242
    175.00   -0.4577    0.0187
    176.00   -0.3662    0.0141
    177.00   -0.2746    0.0106
    178.00   -0.1831    0.0080
    179.00   -0.0915    0.0065
    180.00    0.0000    0.0060
    180.00    0.0000    0.0060
