AeroDyn airfoil file Created with QBlade v0.91b 32-Bit on 03.06.2016 at 15:49:41 Compatible with AeroDyn v13.0.
Polar "T1_Re1.600_M0.00_N9.0 360 M" on Foil "T1_Re1.600_M0.00_N9.0" :: generated by QBlade
1              Number of airfoil tables in this file
0              Table ID parameter
23.50          Stall angle (deg)
0              No longer used, enter zero
0              No longer used, enter zero
0              No longer used, enter zero
-1.48          Angle of attack for zero Cn for linear Cn curve (deg)
6.95790        Cn slope for zero lift for linear Cn curve (1/rad)
1.0046         Cn at stall value for positive angle of attack for linear Cn curve
-0.6535        Cn at stall value for negative angle of attack for linear Cn curve
-2.00          Angle of attack for minimum CD (deg)
0.0066         Minimum CD value
   -180.00   -0.0423    0.0060
   -179.00    0.0546    0.0065
   -178.00    0.1515    0.0080
   -177.00    0.2484    0.0105
   -176.00    0.3447    0.0140
   -175.00    0.4350    0.0184
   -174.00    0.5050    0.0239
   -173.00    0.5369    0.0303
   -172.00    0.5277    0.0377
   -171.00    0.4949    0.0461
   -170.00    0.4604    0.0553
   -169.00    0.4355    0.0656
   -168.00    0.4223    0.0767
   -167.00    0.4189    0.0888
   -166.00    0.4227    0.1017
   -165.00    0.4313    0.1155
   -164.00    0.4430    0.1302
   -163.00    0.4568    0.1457
   -162.00    0.4718    0.1621
   -161.00    0.4874    0.1792
   -160.00    0.5032    0.1971
   -159.00    0.5189    0.2158
   -158.00    0.5343    0.2352
   -157.00    0.5493    0.2553
   -156.00    0.5637    0.2761
   -155.00    0.5774    0.2976
   -154.00    0.5904    0.3197
   -153.00    0.6026    0.3424
   -152.00    0.6140    0.3657
   -151.00    0.6246    0.3895
   -150.00    0.6342    0.4138
   -149.00    0.6430    0.4387
   -148.00    0.6508    0.4640
   -147.00    0.6577    0.4897
   -146.00    0.6637    0.5158
   -145.00    0.6687    0.5423
   -144.00    0.6727    0.5691
   -143.00    0.6759    0.5962
   -142.00    0.6780    0.6236
   -141.00    0.6793    0.6513
   -140.00    0.6796    0.6791
   -139.00    0.6789    0.7071
   -138.00    0.6774    0.7352
   -137.00    0.6750    0.7634
   -136.00    0.6716    0.7917
   -135.00    0.6674    0.8200
   -134.00    0.6623    0.8483
   -133.00    0.6564    0.8766
   -132.00    0.6496    0.9048
   -131.00    0.6420    0.9329
   -130.00    0.6336    0.9608
   -129.00    0.6245    0.9886
   -128.00    0.6145    1.0161
   -127.00    0.6039    1.0434
   -126.00    0.5925    1.0705
   -125.00    0.5804    1.0972
   -124.00    0.5676    1.1236
   -123.00    0.5542    1.1496
   -122.00    0.5402    1.1752
   -121.00    0.5256    1.2004
   -120.00    0.5103    1.2251
   -119.00    0.4945    1.2493
   -118.00    0.4782    1.2730
   -117.00    0.4614    1.2961
   -116.00    0.4441    1.3187
   -115.00    0.4263    1.3406
   -114.00    0.4081    1.3619
   -113.00    0.3894    1.3825
   -112.00    0.3704    1.4025
   -111.00    0.3510    1.4217
   -110.00    0.3313    1.4403
   -109.00    0.3113    1.4580
   -108.00    0.2910    1.4750
   -107.00    0.2700    1.4912
   -106.00    0.2492    1.5065
   -105.00    0.2281    1.5211
   -104.00    0.2069    1.5347
   -103.00    0.1855    1.5475
   -102.00    0.1640    1.5594
   -101.00    0.1424    1.5705
   -100.00    0.1206    1.5806
    -99.00    0.0988    1.5897
    -98.00    0.0769    1.5980
    -97.00    0.0550    1.6053
    -96.00    0.0331    1.6116
    -95.00    0.0113    1.6170
    -94.00   -0.0106    1.6214
    -93.00   -0.0324    1.6248
    -92.00   -0.0541    1.6273
    -91.00   -0.0757    1.6288
    -90.00   -0.0972    1.6293
    -89.00   -0.1185    1.6288
    -88.00   -0.1397    1.6273
    -87.00   -0.1607    1.6248
    -86.00   -0.1815    1.6214
    -85.00   -0.2020    1.6170
    -84.00   -0.2223    1.6116
    -83.00   -0.2424    1.6053
    -82.00   -0.2622    1.5980
    -81.00   -0.2817    1.5897
    -80.00   -0.3009    1.5805
    -79.00   -0.3197    1.5704
    -78.00   -0.3382    1.5594
    -77.00   -0.3564    1.5475
    -76.00   -0.3741    1.5347
    -75.00   -0.3915    1.5210
    -74.00   -0.4085    1.5065
    -73.00   -0.4250    1.4911
    -72.00   -0.4411    1.4749
    -71.00   -0.4567    1.4580
    -70.00   -0.4718    1.4402
    -69.00   -0.4865    1.4217
    -68.00   -0.5007    1.4024
    -67.00   -0.5143    1.3825
    -66.00   -0.5274    1.3618
    -65.00   -0.5400    1.3405
    -64.00   -0.5520    1.3186
    -63.00   -0.5635    1.2960
    -62.00   -0.5744    1.2729
    -61.00   -0.5847    1.2492
    -60.00   -0.5944    1.2250
    -59.00   -0.6035    1.2003
    -58.00   -0.6120    1.1751
    -57.00   -0.6198    1.1495
    -56.00   -0.6270    1.1234
    -55.00   -0.6336    1.0970
    -54.00   -0.6395    1.0703
    -53.00   -0.6447    1.0433
    -52.00   -0.6493    1.0159
    -51.00   -0.6532    0.9884
    -50.00   -0.6564    0.9606
    -49.00   -0.6590    0.9326
    -48.00   -0.6608    0.9045
    -47.00   -0.6619    0.8763
    -46.00   -0.6624    0.8480
    -45.00   -0.6621    0.8197
    -44.00   -0.6612    0.7914
    -43.00   -0.6595    0.7631
    -42.00   -0.6571    0.7348
    -41.00   -0.6540    0.7067
    -40.00   -0.6503    0.6787
    -39.00   -0.6458    0.6508
    -38.00   -0.6406    0.6231
    -37.00   -0.6348    0.5957
    -36.00   -0.6283    0.5685
    -35.00   -0.6211    0.5416
    -34.00   -0.6133    0.5151
    -33.00   -0.6048    0.4889
    -32.00   -0.5958    0.4630
    -31.00   -0.5862    0.4376
    -30.00   -0.5761    0.4127
    -29.00   -0.5656    0.3882
    -28.00   -0.5546    0.3642
    -27.00   -0.5434    0.3407
    -26.00   -0.5320    0.3177
    -25.00   -0.5206    0.2953
    -24.00   -0.5095    0.2734
    -23.00   -0.4991    0.2521
    -22.00   -0.4899    0.2313
    -21.00   -0.4826    0.2110
    -20.00   -0.4786    0.1912
    -19.00   -0.4797    0.1717
    -18.00   -0.4890    0.1524
    -17.00   -0.5113    0.1331
    -16.00   -0.5541    0.1132
    -15.00   -0.6276    0.0925
    -14.00   -0.7409    0.0708
    -13.00   -0.8870    0.0493
    -12.00   -1.0189    0.0312
    -11.00   -1.0678    0.0203
    -10.00   -0.9152    0.0132
     -9.50   -0.8878    0.0123
     -9.00   -0.8471    0.0114
     -8.50   -0.8034    0.0106
     -8.00   -0.7568    0.0098
     -7.50   -0.7081    0.0090
     -7.00   -0.6574    0.0081
     -6.50   -0.6039    0.0075
     -6.00   -0.5458    0.0072
     -5.50   -0.4863    0.0070
     -5.00   -0.4268    0.0069
     -4.50   -0.3665    0.0069
     -4.00   -0.3063    0.0067
     -3.50   -0.2457    0.0067
     -3.00   -0.1852    0.0067
     -2.50   -0.1248    0.0066
     -2.00   -0.0637    0.0066
     -1.50   -0.0027    0.0066
     -1.00    0.0578    0.0067
     -0.50    0.1182    0.0066
      0.00    0.1795    0.0066
      0.50    0.2405    0.0066
      1.00    0.3010    0.0067
      1.50    0.3607    0.0068
      2.00    0.4217    0.0068
      2.50    0.4826    0.0068
      3.00    0.5428    0.0069
      3.50    0.6019    0.0071
      4.00    0.6619    0.0071
      4.50    0.7223    0.0072
      5.00    0.7804    0.0074
      5.50    0.8392    0.0075
      6.00    0.8983    0.0076
      6.50    0.9548    0.0079
      7.00    1.0111    0.0082
      7.50    1.0636    0.0087
      8.00    1.1099    0.0095
      8.50    1.1513    0.0104
      9.00    1.1862    0.0115
     10.00    1.2260    0.0140
     10.50    1.2435    0.0158
     11.00    1.2598    0.0180
     11.50    1.2731    0.0205
     12.00    1.2896    0.0231
     12.50    1.3063    0.0258
     13.00    1.3146    0.0292
     13.50    1.3261    0.0325
     14.00    1.3290    0.0369
     15.00    1.3435    0.0455
     16.00    1.3525    0.0553
     17.00    1.3774    0.0638
     17.50    1.3906    0.0683
     18.00    1.3942    0.0743
     18.50    1.4037    0.0795
     19.00    1.4025    0.0863
     19.50    1.4081    0.0921
     20.00    1.4022    0.0999
     20.50    1.4000    0.1072
     21.00    1.3931    0.1154
     21.50    1.4026    0.1210
     22.00    1.4021    0.1282
     22.50    1.4100    0.1340
     23.00    1.4068    0.1418
     23.50    1.4112    0.1483
     24.00    1.4053    0.1567
     24.50    1.3973    0.1654
     25.00    1.3973    0.1727
     26.00    1.3936    0.2434
     27.00    1.3894    0.2666
     28.00    1.3848    0.2906
     29.00    1.3799    0.3154
     30.00    1.3749    0.3410
     31.00    1.3697    0.3672
     32.00    1.3646    0.3940
     33.00    1.3594    0.4213
     34.00    1.3543    0.4492
     35.00    1.3491    0.4776
     36.00    1.3439    0.5063
     37.00    1.3387    0.5354
     38.00    1.3334    0.5649
     39.00    1.3280    0.5946
     40.00    1.3224    0.6245
     41.00    1.3166    0.6546
     42.00    1.3106    0.6849
     43.00    1.3042    0.7153
     44.00    1.2975    0.7457
     45.00    1.2904    0.7762
     46.00    1.2829    0.8066
     47.00    1.2749    0.8370
     48.00    1.2664    0.8674
     49.00    1.2574    0.8976
     50.00    1.2477    0.9276
     51.00    1.2374    0.9574
     52.00    1.2265    0.9870
     53.00    1.2148    1.0163
     54.00    1.2025    1.0453
     55.00    1.1894    1.0740
     56.00    1.1755    1.1023
     57.00    1.1609    1.1302
     58.00    1.1454    1.1577
     59.00    1.1292    1.1847
     60.00    1.1121    1.2112
     61.00    1.0942    1.2371
     62.00    1.0754    1.2625
     63.00    1.0558    1.2873
     64.00    1.0354    1.3115
     65.00    1.0141    1.3350
     66.00    0.9919    1.3579
     67.00    0.9689    1.3800
     68.00    0.9451    1.4015
     69.00    0.9204    1.4221
     70.00    0.8950    1.4420
     71.00    0.8687    1.4611
     72.00    0.8417    1.4794
     73.00    0.8138    1.4969
     74.00    0.7853    1.5134
     75.00    0.7559    1.5291
     76.00    0.7259    1.5439
     77.00    0.6952    1.5578
     78.00    0.6639    1.5708
     79.00    0.6319    1.5828
     80.00    0.5993    1.5938
     81.00    0.5661    1.6039
     82.00    0.5324    1.6130
     83.00    0.4982    1.6211
     84.00    0.4635    1.6282
     85.00    0.4284    1.6343
     86.00    0.3929    1.6394
     87.00    0.3570    1.6434
     88.00    0.3208    1.6465
     89.00    0.2843    1.6485
     90.00    0.2477    1.6494
     91.00    0.2108    1.6494
     92.00    0.1737    1.6483
     93.00    0.1366    1.6462
     94.00    0.0994    1.6431
     95.00    0.0622    1.6390
     96.00    0.0250    1.6338
     97.00   -0.0121    1.6277
     98.00   -0.0490    1.6205
     99.00   -0.0858    1.6124
    100.00   -0.1224    1.6033
    101.00   -0.1587    1.5932
    102.00   -0.1947    1.5822
    103.00   -0.2303    1.5702
    104.00   -0.2655    1.5574
    105.00   -0.3003    1.5436
    106.00   -0.3345    1.5289
    107.00   -0.3682    1.5134
    108.00   -0.4559    1.4970
    109.00   -0.4872    1.4798
    110.00   -0.5179    1.4618
    111.00   -0.5478    1.4430
    112.00   -0.5771    1.4234
    113.00   -0.6055    1.4031
    114.00   -0.6331    1.3821
    115.00   -0.6599    1.3605
    116.00   -0.6857    1.3381
    117.00   -0.7106    1.3152
    118.00   -0.7345    1.2916
    119.00   -0.7575    1.2675
    120.00   -0.7793    1.2428
    121.00   -0.8001    1.2176
    122.00   -0.8198    1.1920
    123.00   -0.8383    1.1659
    124.00   -0.8557    1.1393
    125.00   -0.8718    1.1124
    126.00   -0.8868    1.0852
    127.00   -0.9005    1.0576
    128.00   -0.9130    1.0298
    129.00   -0.9243    1.0017
    130.00   -0.9342    0.9734
    131.00   -0.9428    0.9450
    132.00   -0.9502    0.9163
    133.00   -0.9562    0.8876
    134.00   -0.9609    0.8589
    135.00   -0.9643    0.8300
    136.00   -0.9663    0.8012
    137.00   -0.9671    0.7724
    138.00   -0.9665    0.7437
    139.00   -0.9646    0.7151
    140.00   -0.9614    0.6867
    141.00   -0.9569    0.6584
    142.00   -0.9511    0.6303
    143.00   -0.9441    0.6025
    144.00   -0.9358    0.5750
    145.00   -0.9263    0.5477
    146.00   -0.9156    0.5208
    147.00   -0.9037    0.4943
    148.00   -0.8907    0.4683
    149.00   -0.8766    0.4426
    150.00   -0.8614    0.4174
    151.00   -0.8452    0.3928
    152.00   -0.8280    0.3686
    153.00   -0.8099    0.3451
    154.00   -0.7910    0.3221
    155.00   -0.7712    0.2998
    156.00   -0.7508    0.2781
    157.00   -0.7298    0.2571
    158.00   -0.7083    0.2367
    159.00   -0.6865    0.2171
    160.00   -0.6645    0.1983
    161.00   -0.6427    0.1802
    162.00   -0.6213    0.1629
    163.00   -0.6008    0.1465
    164.00   -0.5818    0.1308
    165.00   -0.5651    0.1161
    166.00   -0.5518    0.1021
    167.00   -0.5436    0.0891
    168.00   -0.5423    0.0770
    169.00   -0.5502    0.0658
    170.00   -0.5683    0.0555
    171.00   -0.5940    0.0462
    172.00   -0.6169    0.0378
    173.00   -0.6190    0.0304
    174.00   -0.5853    0.0240
    175.00   -0.5172    0.0185
    176.00   -0.4286    0.0140
    177.00   -0.3329    0.0105
    178.00   -0.2360    0.0080
    179.00   -0.1391    0.0065
    180.00   -0.0423    0.0060
    180.00   -0.0423    0.0060
