AeroDyn airfoil file Created with QBlade v0.91b 32-Bit on 03.06.2016 at 15:49:41 Compatible with AeroDyn v13.0.
Polar "T1_Re1.200_M0.00_N9.0 360 M" on Foil "T1_Re1.200_M0.00_N9.0" :: generated by QBlade
1              Number of airfoil tables in this file
0              Table ID parameter
20.00          Stall angle (deg)
0              No longer used, enter zero
0              No longer used, enter zero
0              No longer used, enter zero
-1.46          Angle of attack for zero Cn for linear Cn curve (deg)
6.92852        Cn slope for zero lift for linear Cn curve (1/rad)
1.0508         Cn at stall value for positive angle of attack for linear Cn curve
-0.6562        Cn at stall value for negative angle of attack for linear Cn curve
-1.00          Angle of attack for minimum CD (deg)
0.0072         Minimum CD value
   -180.00   -0.0418    0.0060
   -179.00    0.0549    0.0065
   -178.00    0.1514    0.0080
   -177.00    0.2457    0.0105
   -176.00    0.3303    0.0140
   -175.00    0.3926    0.0184
   -174.00    0.4227    0.0239
   -173.00    0.4240    0.0303
   -172.00    0.4106    0.0377
   -171.00    0.3956    0.0461
   -170.00    0.3861    0.0553
   -169.00    0.3835    0.0656
   -168.00    0.3870    0.0767
   -167.00    0.3953    0.0888
   -166.00    0.4069    0.1017
   -165.00    0.4208    0.1155
   -164.00    0.4362    0.1302
   -163.00    0.4525    0.1457
   -162.00    0.4692    0.1621
   -161.00    0.4860    0.1792
   -160.00    0.5026    0.1971
   -159.00    0.5190    0.2158
   -158.00    0.5348    0.2352
   -157.00    0.5502    0.2553
   -156.00    0.5648    0.2761
   -155.00    0.5788    0.2976
   -154.00    0.5920    0.3197
   -153.00    0.6043    0.3424
   -152.00    0.6158    0.3657
   -151.00    0.6265    0.3895
   -150.00    0.6362    0.4138
   -149.00    0.6450    0.4387
   -148.00    0.6529    0.4640
   -147.00    0.6599    0.4897
   -146.00    0.6659    0.5158
   -145.00    0.6709    0.5423
   -144.00    0.6751    0.5691
   -143.00    0.6782    0.5962
   -142.00    0.6804    0.6236
   -141.00    0.6817    0.6513
   -140.00    0.6820    0.6791
   -139.00    0.6814    0.7071
   -138.00    0.6799    0.7352
   -137.00    0.6775    0.7634
   -136.00    0.6742    0.7917
   -135.00    0.6700    0.8200
   -134.00    0.6649    0.8483
   -133.00    0.6590    0.8766
   -132.00    0.6522    0.9048
   -131.00    0.6446    0.9329
   -130.00    0.6362    0.9608
   -129.00    0.6271    0.9886
   -128.00    0.6171    1.0161
   -127.00    0.6065    1.0434
   -126.00    0.5951    1.0705
   -125.00    0.5830    1.0972
   -124.00    0.5702    1.1236
   -123.00    0.5567    1.1496
   -122.00    0.5427    1.1752
   -121.00    0.5280    1.2004
   -120.00    0.5127    1.2251
   -119.00    0.4969    1.2493
   -118.00    0.4805    1.2730
   -117.00    0.4636    1.2961
   -116.00    0.4462    1.3187
   -115.00    0.4284    1.3406
   -114.00    0.4101    1.3619
   -113.00    0.3914    1.3825
   -112.00    0.3723    1.4025
   -111.00    0.3528    1.4217
   -110.00    0.3330    1.4403
   -109.00    0.3123    1.4580
   -108.00    0.2919    1.4750
   -107.00    0.2713    1.4912
   -106.00    0.2504    1.5065
   -105.00    0.2293    1.5211
   -104.00    0.2079    1.5347
   -103.00    0.1865    1.5475
   -102.00    0.1648    1.5594
   -101.00    0.1431    1.5705
   -100.00    0.1212    1.5806
    -99.00    0.0993    1.5897
    -98.00    0.0773    1.5980
    -97.00    0.0553    1.6053
    -96.00    0.0333    1.6116
    -95.00    0.0113    1.6170
    -94.00   -0.0107    1.6214
    -93.00   -0.0326    1.6248
    -92.00   -0.0544    1.6273
    -91.00   -0.0761    1.6288
    -90.00   -0.0977    1.6293
    -89.00   -0.1191    1.6288
    -88.00   -0.1404    1.6273
    -87.00   -0.1615    1.6248
    -86.00   -0.1824    1.6214
    -85.00   -0.2031    1.6170
    -84.00   -0.2235    1.6116
    -83.00   -0.2437    1.6053
    -82.00   -0.2636    1.5980
    -81.00   -0.2832    1.5897
    -80.00   -0.3025    1.5805
    -79.00   -0.3214    1.5704
    -78.00   -0.3400    1.5594
    -77.00   -0.3582    1.5475
    -76.00   -0.3761    1.5347
    -75.00   -0.3935    1.5210
    -74.00   -0.4105    1.5065
    -73.00   -0.4271    1.4911
    -72.00   -0.4433    1.4749
    -71.00   -0.4589    1.4580
    -70.00   -0.4742    1.4402
    -69.00   -0.4889    1.4217
    -68.00   -0.5031    1.4024
    -67.00   -0.5168    1.3825
    -66.00   -0.5299    1.3618
    -65.00   -0.5426    1.3405
    -64.00   -0.5546    1.3186
    -63.00   -0.5661    1.2960
    -62.00   -0.5770    1.2729
    -61.00   -0.5873    1.2492
    -60.00   -0.5970    1.2250
    -59.00   -0.6061    1.2003
    -58.00   -0.6146    1.1751
    -57.00   -0.6225    1.1495
    -56.00   -0.6297    1.1234
    -55.00   -0.6362    1.0970
    -54.00   -0.6421    1.0703
    -53.00   -0.6474    1.0433
    -52.00   -0.6519    1.0159
    -51.00   -0.6558    0.9884
    -50.00   -0.6590    0.9606
    -49.00   -0.6615    0.9326
    -48.00   -0.6633    0.9045
    -47.00   -0.6644    0.8763
    -46.00   -0.6648    0.8480
    -45.00   -0.6645    0.8197
    -44.00   -0.6635    0.7914
    -43.00   -0.6618    0.7631
    -42.00   -0.6593    0.7348
    -41.00   -0.6562    0.7067
    -40.00   -0.6524    0.6786
    -39.00   -0.6479    0.6508
    -38.00   -0.6426    0.6231
    -37.00   -0.6367    0.5957
    -36.00   -0.6302    0.5685
    -35.00   -0.6229    0.5416
    -34.00   -0.6151    0.5151
    -33.00   -0.6066    0.4889
    -32.00   -0.5975    0.4630
    -31.00   -0.5878    0.4376
    -30.00   -0.5776    0.4127
    -29.00   -0.5670    0.3882
    -28.00   -0.5560    0.3642
    -27.00   -0.5447    0.3407
    -26.00   -0.5332    0.3177
    -25.00   -0.5218    0.2953
    -24.00   -0.5107    0.2734
    -23.00   -0.5002    0.2521
    -22.00   -0.4909    0.2313
    -21.00   -0.4835    0.2110
    -20.00   -0.4794    0.1912
    -19.00   -0.4804    0.1717
    -18.00   -0.4896    0.1524
    -17.00   -0.5117    0.1331
    -16.00   -0.5543    0.1133
    -15.00   -0.6275    0.0926
    -14.00   -0.7404    0.0709
    -13.00   -0.8861    0.0493
    -12.00   -1.0181    0.0313
    -11.00   -1.0674    0.0203
    -10.00   -0.9014    0.0140
     -9.50   -0.8796    0.0129
     -9.00   -0.8440    0.0119
     -8.50   -0.8030    0.0110
     -8.00   -0.7586    0.0099
     -7.50   -0.7110    0.0090
     -7.00   -0.6601    0.0083
     -6.50   -0.6031    0.0079
     -6.00   -0.5444    0.0078
     -5.50   -0.4861    0.0077
     -5.00   -0.4258    0.0075
     -4.50   -0.3663    0.0074
     -4.00   -0.3064    0.0074
     -3.50   -0.2461    0.0073
     -3.00   -0.1858    0.0072
     -2.50   -0.1254    0.0072
     -2.00   -0.0653    0.0073
     -1.50   -0.0045    0.0072
     -1.00    0.0562    0.0072
     -0.50    0.1167    0.0072
      0.00    0.1766    0.0073
      0.50    0.2374    0.0073
      1.00    0.2981    0.0073
      1.50    0.3585    0.0073
      2.00    0.4183    0.0074
      2.50    0.4777    0.0076
      3.00    0.5383    0.0076
      3.50    0.5985    0.0076
      4.00    0.6575    0.0078
      4.50    0.7155    0.0080
      5.00    0.7757    0.0080
      5.50    0.8337    0.0081
      6.00    0.8906    0.0084
      6.50    0.9494    0.0085
      7.00    1.0048    0.0088
      7.50    1.0587    0.0091
      8.00    1.1088    0.0096
      8.50    1.1512    0.0105
      9.00    1.1866    0.0116
      9.50    1.2058    0.0128
     10.00    1.2208    0.0144
     10.50    1.2349    0.0164
     11.00    1.2486    0.0188
     11.50    1.2599    0.0215
     12.00    1.2702    0.0245
     12.50    1.2863    0.0273
     13.00    1.2945    0.0308
     13.50    1.3055    0.0343
     14.00    1.3131    0.0384
     14.50    1.3135    0.0432
     15.00    1.3150    0.0482
     15.50    1.3229    0.0525
     16.50    1.3281    0.0632
     17.00    1.3342    0.0686
     17.50    1.3428    0.0741
     18.00    1.3562    0.0788
     18.50    1.3599    0.0850
     19.00    1.3687    0.0904
     19.50    1.3683    0.0974
     20.00    1.3738    0.1036
     20.50    1.3697    0.1113
     21.00    1.3705    0.1183
     21.50    1.3587    0.1273
     22.00    1.3379    0.1378
     22.50    1.3386    0.1450
     23.00    1.3375    0.1528
     23.50    1.3429    0.1593
     24.00    1.3395    0.1675
     24.50    1.3424    0.1744
     25.00    1.3373    0.1829
     26.00    1.3192    0.2516
     27.00    1.3094    0.2757
     28.00    1.3001    0.3006
     29.00    1.2913    0.3263
     30.00    1.2832    0.3525
     31.00    1.2756    0.3794
     32.00    1.2687    0.4068
     33.00    1.2622    0.4347
     34.00    1.2563    0.4630
     35.00    1.2508    0.4917
     36.00    1.2456    0.5207
     37.00    1.2407    0.5501
     38.00    1.2360    0.5797
     39.00    1.2314    0.6095
     40.00    1.2268    0.6395
     41.00    1.2222    0.6697
     42.00    1.2175    0.6999
     43.00    1.2125    0.7302
     44.00    1.2074    0.7606
     45.00    1.2018    0.7910
     46.00    1.1959    0.8213
     47.00    1.1896    0.8515
     48.00    1.1827    0.8817
     49.00    1.1754    0.9117
     50.00    1.1674    0.9415
     51.00    1.1588    0.9711
     52.00    1.1495    1.0005
     53.00    1.1395    1.0296
     54.00    1.1288    1.0583
     55.00    1.1173    1.0868
     56.00    1.1051    1.1148
     57.00    1.0920    1.1425
     58.00    1.0781    1.1697
     59.00    1.0633    1.1964
     60.00    1.0477    1.2226
     61.00    1.0313    1.2483
     62.00    1.0140    1.2734
     63.00    0.9957    1.2980
     64.00    0.9767    1.3219
     65.00    0.9567    1.3451
     66.00    0.9358    1.3677
     67.00    0.9141    1.3896
     68.00    0.8916    1.4108
     69.00    0.8681    1.4312
     70.00    0.8438    1.4509
     71.00    0.8187    1.4697
     72.00    0.7928    1.4878
     73.00    0.7661    1.5050
     74.00    0.7386    1.5213
     75.00    0.7104    1.5368
     76.00    0.6814    1.5513
     77.00    0.6517    1.5650
     78.00    0.6213    1.5777
     79.00    0.5903    1.5895
     80.00    0.5586    1.6004
     81.00    0.5264    1.6102
     82.00    0.4936    1.6191
     83.00    0.4603    1.6270
     84.00    0.4265    1.6339
     85.00    0.3922    1.6398
     86.00    0.3575    1.6447
     87.00    0.3225    1.6486
     88.00    0.2871    1.6515
     89.00    0.2514    1.6533
     90.00    0.2155    1.6541
     91.00    0.1794    1.6539
     92.00    0.1431    1.6527
     93.00    0.1067    1.6504
     94.00    0.0702    1.6471
     95.00    0.0337    1.6429
     96.00   -0.0028    1.6376
     97.00   -0.0393    1.6313
     98.00   -0.0756    1.6240
     99.00   -0.1117    1.6157
    100.00   -0.1477    1.6065
    101.00   -0.1834    1.5963
    102.00   -0.2187    1.5852
    103.00   -0.2538    1.5731
    104.00   -0.2884    1.5601
    105.00   -0.3226    1.5462
    106.00   -0.3563    1.5314
    107.00   -0.3895    1.5158
    108.00   -0.4221    1.4993
    109.00   -0.4540    1.4820
    110.00   -0.4853    1.4639
    111.00   -0.5465    1.4450
    112.00   -0.5756    1.4254
    113.00   -0.6040    1.4050
    114.00   -0.6316    1.3839
    115.00   -0.6583    1.3622
    116.00   -0.6840    1.3397
    117.00   -0.7089    1.3167
    118.00   -0.7328    1.2931
    119.00   -0.7556    1.2689
    120.00   -0.7774    1.2441
    121.00   -0.7982    1.2189
    122.00   -0.8178    1.1932
    123.00   -0.8363    1.1670
    124.00   -0.8537    1.1404
    125.00   -0.8698    1.1135
    126.00   -0.8848    1.0862
    127.00   -0.8985    1.0586
    128.00   -0.9110    1.0307
    129.00   -0.9222    1.0026
    130.00   -0.9322    0.9742
    131.00   -0.9408    0.9457
    132.00   -0.9482    0.9170
    133.00   -0.9542    0.8883
    134.00   -0.9589    0.8595
    135.00   -0.9624    0.8306
    136.00   -0.9645    0.8018
    137.00   -0.9652    0.7729
    138.00   -0.9647    0.7442
    139.00   -0.9628    0.7156
    140.00   -0.9597    0.6871
    141.00   -0.9552    0.6588
    142.00   -0.9495    0.6307
    143.00   -0.9425    0.6028
    144.00   -0.9343    0.5753
    145.00   -0.9248    0.5480
    146.00   -0.9142    0.5211
    147.00   -0.9024    0.4946
    148.00   -0.8894    0.4685
    149.00   -0.8753    0.4428
    150.00   -0.8601    0.4176
    151.00   -0.8439    0.3929
    152.00   -0.8267    0.3688
    153.00   -0.8086    0.3452
    154.00   -0.7896    0.3222
    155.00   -0.7697    0.2999
    156.00   -0.7491    0.2782
    157.00   -0.7278    0.2571
    158.00   -0.7058    0.2368
    159.00   -0.6834    0.2172
    160.00   -0.6606    0.1983
    161.00   -0.6375    0.1803
    162.00   -0.6144    0.1630
    163.00   -0.5915    0.1465
    164.00   -0.5689    0.1309
    165.00   -0.5472    0.1161
    166.00   -0.5266    0.1022
    167.00   -0.5079    0.0891
    168.00   -0.4916    0.0770
    169.00   -0.4786    0.0658
    170.00   -0.4698    0.0555
    171.00   -0.4657    0.0462
    172.00   -0.4655    0.0378
    173.00   -0.4663    0.0304
    174.00   -0.4608    0.0239
    175.00   -0.4387    0.0185
    176.00   -0.3919    0.0140
    177.00   -0.3207    0.0105
    178.00   -0.2331    0.0080
    179.00   -0.1384    0.0065
    180.00   -0.0418    0.0060
    180.00   -0.0418    0.0060
